
---------- Begin Simulation Statistics ----------
simSeconds                                 139.284343                       # Number of seconds simulated (Second)
simTicks                                 139284342619750                       # Number of ticks simulated (Tick)
finalTick                                139284342619750                       # Number of ticks from beginning of simulation (restored from checkpoints and never reset) (Tick)
simFreq                                  1000000000000                       # The number of ticks per simulated second ((Tick/Second))
hostSeconds                                  18136.92                       # Real time elapsed on the host (Second)
hostTickRate                               7679604834                       # The number of ticks simulated per host second (ticks/s) ((Tick/Second))
hostMemory                                    3478468                       # Number of bytes of host memory used (Byte)
simInsts                                   1470131770                       # Number of instructions simulated (Count)
simOps                                     1785046721                       # Number of ops (including micro ops) simulated (Count)
hostInstRate                                    81057                       # Simulator instruction rate (inst/s) ((Count/Second))
hostOpRate                                      98421                       # Simulator op (including micro ops) rate (op/s) ((Count/Second))
system.clk_domain.clock                          1000                       # Clock period in ticks (Tick)
system.cpu_cluster.clk_domain.clock               250                       # Clock period in ticks (Tick)
system.cpu_cluster.cpus.numCycles          4495379546                       # Number of cpu cycles simulated (Cycle)
system.cpu_cluster.cpus.cpi                  3.057807                       # CPI: cycles per instruction (core level) ((Cycle/Count))
system.cpu_cluster.cpus.ipc                  0.327032                       # IPC: instructions per cycle (core level) ((Count/Cycle))
system.cpu_cluster.cpus.numWorkItemsStarted            0                       # Number of work items this cpu started (Count)
system.cpu_cluster.cpus.numWorkItemsCompleted            0                       # Number of work items this cpu completed (Count)
system.cpu_cluster.cpus.quiesceCycles    552641990981                       # Total number of cycles that CPU has spent quiesced or waiting for an interrupt (Cycle)
system.cpu_cluster.cpus.branchPred.lookups_0::NoBranch       635140      0.18%      0.18% # Number of BP lookups (Count)
system.cpu_cluster.cpus.branchPred.lookups_0::Return     75685216     20.86%     21.04% # Number of BP lookups (Count)
system.cpu_cluster.cpus.branchPred.lookups_0::CallDirect     74548238     20.55%     41.58% # Number of BP lookups (Count)
system.cpu_cluster.cpus.branchPred.lookups_0::CallIndirect      2809564      0.77%     42.36% # Number of BP lookups (Count)
system.cpu_cluster.cpus.branchPred.lookups_0::DirectCond    191464204     52.77%     95.13% # Number of BP lookups (Count)
system.cpu_cluster.cpus.branchPred.lookups_0::DirectUncond     14578084      4.02%     99.15% # Number of BP lookups (Count)
system.cpu_cluster.cpus.branchPred.lookups_0::IndirectCond            0      0.00%     99.15% # Number of BP lookups (Count)
system.cpu_cluster.cpus.branchPred.lookups_0::IndirectUncond      3082941      0.85%    100.00% # Number of BP lookups (Count)
system.cpu_cluster.cpus.branchPred.lookups_0::total    362803387                       # Number of BP lookups (Count)
system.cpu_cluster.cpus.branchPred.squashes_0::NoBranch       120232      0.38%      0.38% # Number of branches that got squashed (completely removed) as an earlier branch was mispredicted. (Count)
system.cpu_cluster.cpus.branchPred.squashes_0::Return      4750138     14.84%     15.21% # Number of branches that got squashed (completely removed) as an earlier branch was mispredicted. (Count)
system.cpu_cluster.cpus.branchPred.squashes_0::CallDirect      5172796     16.16%     31.37% # Number of branches that got squashed (completely removed) as an earlier branch was mispredicted. (Count)
system.cpu_cluster.cpus.branchPred.squashes_0::CallIndirect       230008      0.72%     32.09% # Number of branches that got squashed (completely removed) as an earlier branch was mispredicted. (Count)
system.cpu_cluster.cpus.branchPred.squashes_0::DirectCond     17553105     54.83%     86.91% # Number of branches that got squashed (completely removed) as an earlier branch was mispredicted. (Count)
system.cpu_cluster.cpus.branchPred.squashes_0::DirectUncond      2982573      9.32%     96.23% # Number of branches that got squashed (completely removed) as an earlier branch was mispredicted. (Count)
system.cpu_cluster.cpus.branchPred.squashes_0::IndirectCond            0      0.00%     96.23% # Number of branches that got squashed (completely removed) as an earlier branch was mispredicted. (Count)
system.cpu_cluster.cpus.branchPred.squashes_0::IndirectUncond      1207638      3.77%    100.00% # Number of branches that got squashed (completely removed) as an earlier branch was mispredicted. (Count)
system.cpu_cluster.cpus.branchPred.squashes_0::total     32016490                       # Number of branches that got squashed (completely removed) as an earlier branch was mispredicted. (Count)
system.cpu_cluster.cpus.branchPred.corrected_0::NoBranch       194759      1.26%      1.26% # Number of branches that got corrected but not yet commited. Branches get corrected by decode or after execute. Also a branch misprediction can be detected out-of-order. Therefore, a corrected branch might not end up beeing committed in case an even earlier branch was mispredicted (Count)
system.cpu_cluster.cpus.branchPred.corrected_0::Return      4048037     26.26%     27.53% # Number of branches that got corrected but not yet commited. Branches get corrected by decode or after execute. Also a branch misprediction can be detected out-of-order. Therefore, a corrected branch might not end up beeing committed in case an even earlier branch was mispredicted (Count)
system.cpu_cluster.cpus.branchPred.corrected_0::CallDirect      2190078     14.21%     41.73% # Number of branches that got corrected but not yet commited. Branches get corrected by decode or after execute. Also a branch misprediction can be detected out-of-order. Therefore, a corrected branch might not end up beeing committed in case an even earlier branch was mispredicted (Count)
system.cpu_cluster.cpus.branchPred.corrected_0::CallIndirect       277035      1.80%     43.53% # Number of branches that got corrected but not yet commited. Branches get corrected by decode or after execute. Also a branch misprediction can be detected out-of-order. Therefore, a corrected branch might not end up beeing committed in case an even earlier branch was mispredicted (Count)
system.cpu_cluster.cpus.branchPred.corrected_0::DirectCond      7655246     49.66%     93.19% # Number of branches that got corrected but not yet commited. Branches get corrected by decode or after execute. Also a branch misprediction can be detected out-of-order. Therefore, a corrected branch might not end up beeing committed in case an even earlier branch was mispredicted (Count)
system.cpu_cluster.cpus.branchPred.corrected_0::DirectUncond       657581      4.27%     97.46% # Number of branches that got corrected but not yet commited. Branches get corrected by decode or after execute. Also a branch misprediction can be detected out-of-order. Therefore, a corrected branch might not end up beeing committed in case an even earlier branch was mispredicted (Count)
system.cpu_cluster.cpus.branchPred.corrected_0::IndirectCond            0      0.00%     97.46% # Number of branches that got corrected but not yet commited. Branches get corrected by decode or after execute. Also a branch misprediction can be detected out-of-order. Therefore, a corrected branch might not end up beeing committed in case an even earlier branch was mispredicted (Count)
system.cpu_cluster.cpus.branchPred.corrected_0::IndirectUncond       391360      2.54%    100.00% # Number of branches that got corrected but not yet commited. Branches get corrected by decode or after execute. Also a branch misprediction can be detected out-of-order. Therefore, a corrected branch might not end up beeing committed in case an even earlier branch was mispredicted (Count)
system.cpu_cluster.cpus.branchPred.corrected_0::total     15414096                       # Number of branches that got corrected but not yet commited. Branches get corrected by decode or after execute. Also a branch misprediction can be detected out-of-order. Therefore, a corrected branch might not end up beeing committed in case an even earlier branch was mispredicted (Count)
system.cpu_cluster.cpus.branchPred.earlyResteers_0::NoBranch            0                       # Number of branches that got redirected after decode. (Count)
system.cpu_cluster.cpus.branchPred.earlyResteers_0::Return            0                       # Number of branches that got redirected after decode. (Count)
system.cpu_cluster.cpus.branchPred.earlyResteers_0::CallDirect            0                       # Number of branches that got redirected after decode. (Count)
system.cpu_cluster.cpus.branchPred.earlyResteers_0::CallIndirect            0                       # Number of branches that got redirected after decode. (Count)
system.cpu_cluster.cpus.branchPred.earlyResteers_0::DirectCond            0                       # Number of branches that got redirected after decode. (Count)
system.cpu_cluster.cpus.branchPred.earlyResteers_0::DirectUncond            0                       # Number of branches that got redirected after decode. (Count)
system.cpu_cluster.cpus.branchPred.earlyResteers_0::IndirectCond            0                       # Number of branches that got redirected after decode. (Count)
system.cpu_cluster.cpus.branchPred.earlyResteers_0::IndirectUncond            0                       # Number of branches that got redirected after decode. (Count)
system.cpu_cluster.cpus.branchPred.earlyResteers_0::total            0                       # Number of branches that got redirected after decode. (Count)
system.cpu_cluster.cpus.branchPred.committed_0::NoBranch       514908      0.16%      0.16% # Number of branches finally committed  (Count)
system.cpu_cluster.cpus.branchPred.committed_0::Return     70935077     21.44%     21.60% # Number of branches finally committed  (Count)
system.cpu_cluster.cpus.branchPred.committed_0::CallDirect     69375442     20.97%     42.57% # Number of branches finally committed  (Count)
system.cpu_cluster.cpus.branchPred.committed_0::CallIndirect      2579556      0.78%     43.35% # Number of branches finally committed  (Count)
system.cpu_cluster.cpus.branchPred.committed_0::DirectCond    173911099     52.57%     95.93% # Number of branches finally committed  (Count)
system.cpu_cluster.cpus.branchPred.committed_0::DirectUncond     11595511      3.51%     99.43% # Number of branches finally committed  (Count)
system.cpu_cluster.cpus.branchPred.committed_0::IndirectCond            0      0.00%     99.43% # Number of branches finally committed  (Count)
system.cpu_cluster.cpus.branchPred.committed_0::IndirectUncond      1875303      0.57%    100.00% # Number of branches finally committed  (Count)
system.cpu_cluster.cpus.branchPred.committed_0::total    330786896                       # Number of branches finally committed  (Count)
system.cpu_cluster.cpus.branchPred.mispredicted_0::NoBranch       194759      1.26%      1.26% # Number of committed branches that were mispredicted. (Count)
system.cpu_cluster.cpus.branchPred.mispredicted_0::Return      4048037     26.26%     27.53% # Number of committed branches that were mispredicted. (Count)
system.cpu_cluster.cpus.branchPred.mispredicted_0::CallDirect      2190078     14.21%     41.73% # Number of committed branches that were mispredicted. (Count)
system.cpu_cluster.cpus.branchPred.mispredicted_0::CallIndirect       277035      1.80%     43.53% # Number of committed branches that were mispredicted. (Count)
system.cpu_cluster.cpus.branchPred.mispredicted_0::DirectCond      7655246     49.66%     93.19% # Number of committed branches that were mispredicted. (Count)
system.cpu_cluster.cpus.branchPred.mispredicted_0::DirectUncond       657581      4.27%     97.46% # Number of committed branches that were mispredicted. (Count)
system.cpu_cluster.cpus.branchPred.mispredicted_0::IndirectCond            0      0.00%     97.46% # Number of committed branches that were mispredicted. (Count)
system.cpu_cluster.cpus.branchPred.mispredicted_0::IndirectUncond       391360      2.54%    100.00% # Number of committed branches that were mispredicted. (Count)
system.cpu_cluster.cpus.branchPred.mispredicted_0::total     15414096                       # Number of committed branches that were mispredicted. (Count)
system.cpu_cluster.cpus.branchPred.targetProvider_0::NoTarget    129793620     35.78%     35.78% # The component providing the target for taken branches (Count)
system.cpu_cluster.cpus.branchPred.targetProvider_0::BTB    153733806     42.37%     78.15% # The component providing the target for taken branches (Count)
system.cpu_cluster.cpus.branchPred.targetProvider_0::RAS     75685191     20.86%     99.01% # The component providing the target for taken branches (Count)
system.cpu_cluster.cpus.branchPred.targetProvider_0::Indirect      3590770      0.99%    100.00% # The component providing the target for taken branches (Count)
system.cpu_cluster.cpus.branchPred.targetProvider_0::total    362803387                       # The component providing the target for taken branches (Count)
system.cpu_cluster.cpus.branchPred.targetWrong_0::NoBranch      8837475     57.33%     57.33% # Number of branches where the target was incorrect or not available at prediction time. (Count)
system.cpu_cluster.cpus.branchPred.targetWrong_0::Return      2445284     15.86%     73.20% # Number of branches where the target was incorrect or not available at prediction time. (Count)
system.cpu_cluster.cpus.branchPred.targetWrong_0::CallDirect      4048034     26.26%     99.46% # Number of branches where the target was incorrect or not available at prediction time. (Count)
system.cpu_cluster.cpus.branchPred.targetWrong_0::CallIndirect        83302      0.54%    100.00% # Number of branches where the target was incorrect or not available at prediction time. (Count)
system.cpu_cluster.cpus.branchPred.targetWrong_0::DirectCond            0      0.00%    100.00% # Number of branches where the target was incorrect or not available at prediction time. (Count)
system.cpu_cluster.cpus.branchPred.targetWrong_0::DirectUncond            0      0.00%    100.00% # Number of branches where the target was incorrect or not available at prediction time. (Count)
system.cpu_cluster.cpus.branchPred.targetWrong_0::IndirectCond            0      0.00%    100.00% # Number of branches where the target was incorrect or not available at prediction time. (Count)
system.cpu_cluster.cpus.branchPred.targetWrong_0::IndirectUncond            0      0.00%    100.00% # Number of branches where the target was incorrect or not available at prediction time. (Count)
system.cpu_cluster.cpus.branchPred.targetWrong_0::total     15414095                       # Number of branches where the target was incorrect or not available at prediction time. (Count)
system.cpu_cluster.cpus.branchPred.condPredicted    192099344                       # Number of conditional branches predicted (Count)
system.cpu_cluster.cpus.branchPred.condPredictedTaken     78978615                       # Number of conditional branches predicted as taken (Count)
system.cpu_cluster.cpus.branchPred.condIncorrect     15414096                       # Number of conditional branches incorrect (Count)
system.cpu_cluster.cpus.branchPred.predTakenBTBMiss      4564477                       # Number of branches predicted taken but missed in BTB (Count)
system.cpu_cluster.cpus.branchPred.NotTakenMispredicted     12964864                       # Number branches predicted 'not taken' but turned out to be taken (Count)
system.cpu_cluster.cpus.branchPred.TakenMispredicted      2449232                       # Number branches predicted taken but are actually not taken (Count)
system.cpu_cluster.cpus.branchPred.BTBLookups    362803387                       # Number of BTB lookups (Count)
system.cpu_cluster.cpus.branchPred.BTBUpdates      8057940                       # Number of BTB updates (Count)
system.cpu_cluster.cpus.branchPred.BTBHits    192977632                       # Number of BTB hits (Count)
system.cpu_cluster.cpus.branchPred.BTBHitRatio     0.531907                       # BTB Hit Ratio (Ratio)
system.cpu_cluster.cpus.branchPred.BTBMispredicted      5296746                       # Number BTB mispredictions. No target found or target wrong (Count)
system.cpu_cluster.cpus.branchPred.indirectLookups      5892505                       # Number of indirect predictor lookups. (Count)
system.cpu_cluster.cpus.branchPred.indirectHits      3590770                       # Number of indirect target hits. (Count)
system.cpu_cluster.cpus.branchPred.indirectMisses      2301735                       # Number of indirect misses. (Count)
system.cpu_cluster.cpus.branchPred.indirectMispredicted            0                       # Number of mispredicted indirect branches. (Count)
system.cpu_cluster.cpus.branchPred.btb.lookups::NoBranch       635140      0.18%      0.18% # Number of BTB lookups (Count)
system.cpu_cluster.cpus.branchPred.btb.lookups::Return     75685216     20.86%     21.04% # Number of BTB lookups (Count)
system.cpu_cluster.cpus.branchPred.btb.lookups::CallDirect     74548238     20.55%     41.58% # Number of BTB lookups (Count)
system.cpu_cluster.cpus.branchPred.btb.lookups::CallIndirect      2809564      0.77%     42.36% # Number of BTB lookups (Count)
system.cpu_cluster.cpus.branchPred.btb.lookups::DirectCond    191464204     52.77%     95.13% # Number of BTB lookups (Count)
system.cpu_cluster.cpus.branchPred.btb.lookups::DirectUncond     14578084      4.02%     99.15% # Number of BTB lookups (Count)
system.cpu_cluster.cpus.branchPred.btb.lookups::IndirectCond            0      0.00%     99.15% # Number of BTB lookups (Count)
system.cpu_cluster.cpus.branchPred.btb.lookups::IndirectUncond      3082941      0.85%    100.00% # Number of BTB lookups (Count)
system.cpu_cluster.cpus.branchPred.btb.lookups::total    362803387                       # Number of BTB lookups (Count)
system.cpu_cluster.cpus.branchPred.btb.misses::NoBranch       635139      0.37%      0.37% # Number of BTB misses (Count)
system.cpu_cluster.cpus.branchPred.btb.misses::Return     75682223     44.56%     44.94% # Number of BTB misses (Count)
system.cpu_cluster.cpus.branchPred.btb.misses::CallDirect      4926806      2.90%     47.84% # Number of BTB misses (Count)
system.cpu_cluster.cpus.branchPred.btb.misses::CallIndirect      2809550      1.65%     49.49% # Number of BTB misses (Count)
system.cpu_cluster.cpus.branchPred.btb.misses::DirectCond     80311598     47.29%     96.78% # Number of BTB misses (Count)
system.cpu_cluster.cpus.branchPred.btb.misses::DirectUncond      2380682      1.40%     98.19% # Number of BTB misses (Count)
system.cpu_cluster.cpus.branchPred.btb.misses::IndirectCond            0      0.00%     98.19% # Number of BTB misses (Count)
system.cpu_cluster.cpus.branchPred.btb.misses::IndirectUncond      3079757      1.81%    100.00% # Number of BTB misses (Count)
system.cpu_cluster.cpus.branchPred.btb.misses::total    169825755                       # Number of BTB misses (Count)
system.cpu_cluster.cpus.branchPred.btb.updates::NoBranch            0      0.00%      0.00% # Number of BTB updates (Count)
system.cpu_cluster.cpus.branchPred.btb.updates::Return            0      0.00%      0.00% # Number of BTB updates (Count)
system.cpu_cluster.cpus.branchPred.btb.updates::CallDirect      2190078     27.18%     27.18% # Number of BTB updates (Count)
system.cpu_cluster.cpus.branchPred.btb.updates::CallIndirect            0      0.00%     27.18% # Number of BTB updates (Count)
system.cpu_cluster.cpus.branchPred.btb.updates::DirectCond      5210281     64.66%     91.84% # Number of BTB updates (Count)
system.cpu_cluster.cpus.branchPred.btb.updates::DirectUncond       657581      8.16%    100.00% # Number of BTB updates (Count)
system.cpu_cluster.cpus.branchPred.btb.updates::IndirectCond            0      0.00%    100.00% # Number of BTB updates (Count)
system.cpu_cluster.cpus.branchPred.btb.updates::IndirectUncond            0      0.00%    100.00% # Number of BTB updates (Count)
system.cpu_cluster.cpus.branchPred.btb.updates::total      8057940                       # Number of BTB updates (Count)
system.cpu_cluster.cpus.branchPred.btb.mispredict::NoBranch            0      0.00%      0.00% # Number of BTB mispredictions. No target found or target wrong. (Count)
system.cpu_cluster.cpus.branchPred.btb.mispredict::Return            0      0.00%      0.00% # Number of BTB mispredictions. No target found or target wrong. (Count)
system.cpu_cluster.cpus.branchPred.btb.mispredict::CallDirect      2190078     27.18%     27.18% # Number of BTB mispredictions. No target found or target wrong. (Count)
system.cpu_cluster.cpus.branchPred.btb.mispredict::CallIndirect            0      0.00%     27.18% # Number of BTB mispredictions. No target found or target wrong. (Count)
system.cpu_cluster.cpus.branchPred.btb.mispredict::DirectCond      5210281     64.66%     91.84% # Number of BTB mispredictions. No target found or target wrong. (Count)
system.cpu_cluster.cpus.branchPred.btb.mispredict::DirectUncond       657581      8.16%    100.00% # Number of BTB mispredictions. No target found or target wrong. (Count)
system.cpu_cluster.cpus.branchPred.btb.mispredict::IndirectCond            0      0.00%    100.00% # Number of BTB mispredictions. No target found or target wrong. (Count)
system.cpu_cluster.cpus.branchPred.btb.mispredict::IndirectUncond            0      0.00%    100.00% # Number of BTB mispredictions. No target found or target wrong. (Count)
system.cpu_cluster.cpus.branchPred.btb.mispredict::total      8057940                       # Number of BTB mispredictions. No target found or target wrong. (Count)
system.cpu_cluster.cpus.branchPred.btb.power_state.pwrStateResidencyTicks::UNDEFINED 139284342619750                       # Cumulative time (in ticks) in various power states (Tick)
system.cpu_cluster.cpus.branchPred.indirectBranchPred.lookups      5892505                       # Number of lookups (Count)
system.cpu_cluster.cpus.branchPred.indirectBranchPred.hits      3590770                       # Number of hits of a tag (Count)
system.cpu_cluster.cpus.branchPred.indirectBranchPred.misses      2301735                       # Number of misses (Count)
system.cpu_cluster.cpus.branchPred.indirectBranchPred.targetRecords       665204                       # Number of targets that where recorded/installed in the cache (Count)
system.cpu_cluster.cpus.branchPred.indirectBranchPred.indirectRecords      6560900                       # Number of indirect branches/calls recorded in the indirect hist (Count)
system.cpu_cluster.cpus.branchPred.indirectBranchPred.speculativeOverflows            0                       # Number of times more than the allowed capacity for speculative branches/calls where in flight and destroy the path history (Count)
system.cpu_cluster.cpus.branchPred.ras.pushes     82109016                       # Number of times a PC was pushed onto the RAS (Count)
system.cpu_cluster.cpus.branchPred.ras.pops     81088020                       # Number of times a PC was poped from the RAS (Count)
system.cpu_cluster.cpus.branchPred.ras.squashes     10154018                       # Number of times the stack operation was squashed due to wrong speculation. (Count)
system.cpu_cluster.cpus.branchPred.ras.used     70934001                       # Number of times the RAS is the provider (Count)
system.cpu_cluster.cpus.branchPred.ras.correct     66887040                       # Number of times the RAS is the provider and the prediction is correct (Count)
system.cpu_cluster.cpus.branchPred.ras.incorrect      4046961                       # Number of times the RAS is the provider and the prediction is wrong (Count)
system.cpu_cluster.cpus.commitStats0.numInsts   1470131770                       # Number of instructions committed (thread level) (Count)
system.cpu_cluster.cpus.commitStats0.numOps   1785046721                       # Number of ops (including micro ops) committed (thread level) (Count)
system.cpu_cluster.cpus.commitStats0.numInstsNotNOP            0                       # Number of instructions committed excluding NOPs or prefetches (Count)
system.cpu_cluster.cpus.commitStats0.numOpsNotNOP            0                       # Number of Ops (including micro ops) Simulated (Count)
system.cpu_cluster.cpus.commitStats0.cpi     3.057807                       # CPI: cycles per instruction (thread level) ((Cycle/Count))
system.cpu_cluster.cpus.commitStats0.ipc     0.327032                       # IPC: instructions per cycle (thread level) ((Count/Cycle))
system.cpu_cluster.cpus.commitStats0.numMemRefs            0                       # Number of memory references committed (Count)
system.cpu_cluster.cpus.commitStats0.numFpInsts            0                       # Number of float instructions (Count)
system.cpu_cluster.cpus.commitStats0.numIntInsts            0                       # Number of integer instructions (Count)
system.cpu_cluster.cpus.commitStats0.numLoadInsts            0                       # Number of load instructions (Count)
system.cpu_cluster.cpus.commitStats0.numStoreInsts            0                       # Number of store instructions (Count)
system.cpu_cluster.cpus.commitStats0.numVecInsts            0                       # Number of vector instructions (Count)
system.cpu_cluster.cpus.commitStats0.committedInstType::No_OpClass       240614      0.01%      0.01% # Class of committed instruction. (Count)
system.cpu_cluster.cpus.commitStats0.committedInstType::IntAlu   1200100510     67.23%     67.24% # Class of committed instruction. (Count)
system.cpu_cluster.cpus.commitStats0.committedInstType::IntMult      2580173      0.14%     67.39% # Class of committed instruction. (Count)
system.cpu_cluster.cpus.commitStats0.committedInstType::IntDiv       130883      0.01%     67.40% # Class of committed instruction. (Count)
system.cpu_cluster.cpus.commitStats0.committedInstType::FloatAdd            6      0.00%     67.40% # Class of committed instruction. (Count)
system.cpu_cluster.cpus.commitStats0.committedInstType::FloatCmp           10      0.00%     67.40% # Class of committed instruction. (Count)
system.cpu_cluster.cpus.commitStats0.committedInstType::FloatCvt           17      0.00%     67.40% # Class of committed instruction. (Count)
system.cpu_cluster.cpus.commitStats0.committedInstType::FloatMult            0      0.00%     67.40% # Class of committed instruction. (Count)
system.cpu_cluster.cpus.commitStats0.committedInstType::FloatMultAcc            0      0.00%     67.40% # Class of committed instruction. (Count)
system.cpu_cluster.cpus.commitStats0.committedInstType::FloatDiv            0      0.00%     67.40% # Class of committed instruction. (Count)
system.cpu_cluster.cpus.commitStats0.committedInstType::FloatMisc       117978      0.01%     67.40% # Class of committed instruction. (Count)
system.cpu_cluster.cpus.commitStats0.committedInstType::FloatSqrt            0      0.00%     67.40% # Class of committed instruction. (Count)
system.cpu_cluster.cpus.commitStats0.committedInstType::SimdAdd           22      0.00%     67.40% # Class of committed instruction. (Count)
system.cpu_cluster.cpus.commitStats0.committedInstType::SimdAddAcc            0      0.00%     67.40% # Class of committed instruction. (Count)
system.cpu_cluster.cpus.commitStats0.committedInstType::SimdAlu           25      0.00%     67.40% # Class of committed instruction. (Count)
system.cpu_cluster.cpus.commitStats0.committedInstType::SimdCmp           26      0.00%     67.40% # Class of committed instruction. (Count)
system.cpu_cluster.cpus.commitStats0.committedInstType::SimdCvt            0      0.00%     67.40% # Class of committed instruction. (Count)
system.cpu_cluster.cpus.commitStats0.committedInstType::SimdMisc           20      0.00%     67.40% # Class of committed instruction. (Count)
system.cpu_cluster.cpus.commitStats0.committedInstType::SimdMult            0      0.00%     67.40% # Class of committed instruction. (Count)
system.cpu_cluster.cpus.commitStats0.committedInstType::SimdMultAcc            0      0.00%     67.40% # Class of committed instruction. (Count)
system.cpu_cluster.cpus.commitStats0.committedInstType::SimdMatMultAcc            0      0.00%     67.40% # Class of committed instruction. (Count)
system.cpu_cluster.cpus.commitStats0.committedInstType::SimdShift            1      0.00%     67.40% # Class of committed instruction. (Count)
system.cpu_cluster.cpus.commitStats0.committedInstType::SimdShiftAcc            0      0.00%     67.40% # Class of committed instruction. (Count)
system.cpu_cluster.cpus.commitStats0.committedInstType::SimdDiv            0      0.00%     67.40% # Class of committed instruction. (Count)
system.cpu_cluster.cpus.commitStats0.committedInstType::SimdSqrt            0      0.00%     67.40% # Class of committed instruction. (Count)
system.cpu_cluster.cpus.commitStats0.committedInstType::SimdFloatAdd            0      0.00%     67.40% # Class of committed instruction. (Count)
system.cpu_cluster.cpus.commitStats0.committedInstType::SimdFloatAlu            0      0.00%     67.40% # Class of committed instruction. (Count)
system.cpu_cluster.cpus.commitStats0.committedInstType::SimdFloatCmp            0      0.00%     67.40% # Class of committed instruction. (Count)
system.cpu_cluster.cpus.commitStats0.committedInstType::SimdFloatCvt            0      0.00%     67.40% # Class of committed instruction. (Count)
system.cpu_cluster.cpus.commitStats0.committedInstType::SimdFloatDiv            0      0.00%     67.40% # Class of committed instruction. (Count)
system.cpu_cluster.cpus.commitStats0.committedInstType::SimdFloatMisc            0      0.00%     67.40% # Class of committed instruction. (Count)
system.cpu_cluster.cpus.commitStats0.committedInstType::SimdFloatMult            0      0.00%     67.40% # Class of committed instruction. (Count)
system.cpu_cluster.cpus.commitStats0.committedInstType::SimdFloatMultAcc            0      0.00%     67.40% # Class of committed instruction. (Count)
system.cpu_cluster.cpus.commitStats0.committedInstType::SimdFloatMatMultAcc            0      0.00%     67.40% # Class of committed instruction. (Count)
system.cpu_cluster.cpus.commitStats0.committedInstType::SimdFloatSqrt            0      0.00%     67.40% # Class of committed instruction. (Count)
system.cpu_cluster.cpus.commitStats0.committedInstType::SimdReduceAdd            0      0.00%     67.40% # Class of committed instruction. (Count)
system.cpu_cluster.cpus.commitStats0.committedInstType::SimdReduceAlu            0      0.00%     67.40% # Class of committed instruction. (Count)
system.cpu_cluster.cpus.commitStats0.committedInstType::SimdReduceCmp            0      0.00%     67.40% # Class of committed instruction. (Count)
system.cpu_cluster.cpus.commitStats0.committedInstType::SimdFloatReduceAdd            0      0.00%     67.40% # Class of committed instruction. (Count)
system.cpu_cluster.cpus.commitStats0.committedInstType::SimdFloatReduceCmp            0      0.00%     67.40% # Class of committed instruction. (Count)
system.cpu_cluster.cpus.commitStats0.committedInstType::SimdAes            0      0.00%     67.40% # Class of committed instruction. (Count)
system.cpu_cluster.cpus.commitStats0.committedInstType::SimdAesMix            0      0.00%     67.40% # Class of committed instruction. (Count)
system.cpu_cluster.cpus.commitStats0.committedInstType::SimdSha1Hash            0      0.00%     67.40% # Class of committed instruction. (Count)
system.cpu_cluster.cpus.commitStats0.committedInstType::SimdSha1Hash2            0      0.00%     67.40% # Class of committed instruction. (Count)
system.cpu_cluster.cpus.commitStats0.committedInstType::SimdSha256Hash            0      0.00%     67.40% # Class of committed instruction. (Count)
system.cpu_cluster.cpus.commitStats0.committedInstType::SimdSha256Hash2            0      0.00%     67.40% # Class of committed instruction. (Count)
system.cpu_cluster.cpus.commitStats0.committedInstType::SimdShaSigma2            0      0.00%     67.40% # Class of committed instruction. (Count)
system.cpu_cluster.cpus.commitStats0.committedInstType::SimdShaSigma3            0      0.00%     67.40% # Class of committed instruction. (Count)
system.cpu_cluster.cpus.commitStats0.committedInstType::SimdPredAlu            3      0.00%     67.40% # Class of committed instruction. (Count)
system.cpu_cluster.cpus.commitStats0.committedInstType::Matrix            0      0.00%     67.40% # Class of committed instruction. (Count)
system.cpu_cluster.cpus.commitStats0.committedInstType::MatrixMov            0      0.00%     67.40% # Class of committed instruction. (Count)
system.cpu_cluster.cpus.commitStats0.committedInstType::MatrixOP            0      0.00%     67.40% # Class of committed instruction. (Count)
system.cpu_cluster.cpus.commitStats0.committedInstType::MemRead    314582936     17.62%     85.03% # Class of committed instruction. (Count)
system.cpu_cluster.cpus.commitStats0.committedInstType::MemWrite    267293497     14.97%    100.00% # Class of committed instruction. (Count)
system.cpu_cluster.cpus.commitStats0.committedInstType::FloatMemRead            0      0.00%    100.00% # Class of committed instruction. (Count)
system.cpu_cluster.cpus.commitStats0.committedInstType::FloatMemWrite            0      0.00%    100.00% # Class of committed instruction. (Count)
system.cpu_cluster.cpus.commitStats0.committedInstType::IprAccess            0      0.00%    100.00% # Class of committed instruction. (Count)
system.cpu_cluster.cpus.commitStats0.committedInstType::InstPrefetch            0      0.00%    100.00% # Class of committed instruction. (Count)
system.cpu_cluster.cpus.commitStats0.committedInstType::VectorUnitStrideLoad            0      0.00%    100.00% # Class of committed instruction. (Count)
system.cpu_cluster.cpus.commitStats0.committedInstType::VectorUnitStrideStore            0      0.00%    100.00% # Class of committed instruction. (Count)
system.cpu_cluster.cpus.commitStats0.committedInstType::VectorUnitStrideMaskLoad            0      0.00%    100.00% # Class of committed instruction. (Count)
system.cpu_cluster.cpus.commitStats0.committedInstType::VectorUnitStrideMaskStore            0      0.00%    100.00% # Class of committed instruction. (Count)
system.cpu_cluster.cpus.commitStats0.committedInstType::VectorStridedLoad            0      0.00%    100.00% # Class of committed instruction. (Count)
system.cpu_cluster.cpus.commitStats0.committedInstType::VectorStridedStore            0      0.00%    100.00% # Class of committed instruction. (Count)
system.cpu_cluster.cpus.commitStats0.committedInstType::VectorIndexedLoad            0      0.00%    100.00% # Class of committed instruction. (Count)
system.cpu_cluster.cpus.commitStats0.committedInstType::VectorIndexedStore            0      0.00%    100.00% # Class of committed instruction. (Count)
system.cpu_cluster.cpus.commitStats0.committedInstType::VectorUnitStrideFaultOnlyFirstLoad            0      0.00%    100.00% # Class of committed instruction. (Count)
system.cpu_cluster.cpus.commitStats0.committedInstType::VectorWholeRegisterLoad            0      0.00%    100.00% # Class of committed instruction. (Count)
system.cpu_cluster.cpus.commitStats0.committedInstType::VectorWholeRegisterStore            0      0.00%    100.00% # Class of committed instruction. (Count)
system.cpu_cluster.cpus.commitStats0.committedInstType::VectorIntegerArith            0      0.00%    100.00% # Class of committed instruction. (Count)
system.cpu_cluster.cpus.commitStats0.committedInstType::VectorFloatArith            0      0.00%    100.00% # Class of committed instruction. (Count)
system.cpu_cluster.cpus.commitStats0.committedInstType::VectorFloatConvert            0      0.00%    100.00% # Class of committed instruction. (Count)
system.cpu_cluster.cpus.commitStats0.committedInstType::VectorIntegerReduce            0      0.00%    100.00% # Class of committed instruction. (Count)
system.cpu_cluster.cpus.commitStats0.committedInstType::VectorFloatReduce            0      0.00%    100.00% # Class of committed instruction. (Count)
system.cpu_cluster.cpus.commitStats0.committedInstType::VectorMisc            0      0.00%    100.00% # Class of committed instruction. (Count)
system.cpu_cluster.cpus.commitStats0.committedInstType::VectorIntegerExtension            0      0.00%    100.00% # Class of committed instruction. (Count)
system.cpu_cluster.cpus.commitStats0.committedInstType::VectorConfig            0      0.00%    100.00% # Class of committed instruction. (Count)
system.cpu_cluster.cpus.commitStats0.committedInstType::total   1785046721                       # Class of committed instruction. (Count)
system.cpu_cluster.cpus.data_sequencer.power_state.pwrStateResidencyTicks::UNDEFINED 139284342619750                       # Cumulative time (in ticks) in various power states (Tick)
system.cpu_cluster.cpus.executeStats0.numInsts            0                       # Number of executed instructions (Count)
system.cpu_cluster.cpus.executeStats0.numNop            0                       # Number of nop insts executed (Count)
system.cpu_cluster.cpus.executeStats0.numBranches            0                       # Number of branches executed (Count)
system.cpu_cluster.cpus.executeStats0.numLoadInsts            0                       # Number of load instructions executed (Count)
system.cpu_cluster.cpus.executeStats0.numStoreInsts            0                       # Number of stores executed (Count)
system.cpu_cluster.cpus.executeStats0.instRate            0                       # Inst execution rate ((Count/Cycle))
system.cpu_cluster.cpus.executeStats0.numFpRegWrites            0                       # Number of times the floating registers were written (Count)
system.cpu_cluster.cpus.executeStats0.numMemRefs            0                       # Number of memory refs (Count)
system.cpu_cluster.cpus.executeStats0.numVecAluAccesses            0                       # Number of vector alu accesses (Count)
system.cpu_cluster.cpus.executeStats0.numDiscardedOps     63975116                       # Number of ops (including micro ops) which were discarded before commit (Count)
system.cpu_cluster.cpus.fetch2.intInstructions    990937795                       # Number of integer instructions successfully decoded (Count)
system.cpu_cluster.cpus.fetch2.fpInstructions            0                       # Number of floating point instructions successfully decoded (Count)
system.cpu_cluster.cpus.fetch2.vecInstructions       142449                       # Number of SIMD instructions successfully decoded (Count)
system.cpu_cluster.cpus.fetch2.loadInstructions    253003627                       # Number of memory load instructions successfully decoded (Count)
system.cpu_cluster.cpus.fetch2.storeInstructions    102809537                       # Number of memory store instructions successfully decoded (Count)
system.cpu_cluster.cpus.fetch2.amoInstructions           13                       # Number of memory atomic instructions successfully decoded (Count)
system.cpu_cluster.cpus.fetchStats0.numInsts            0                       # Number of instructions fetched (thread level) (Count)
system.cpu_cluster.cpus.fetchStats0.numOps            0                       # Number of ops (including micro ops) fetched (thread level) (Count)
system.cpu_cluster.cpus.fetchStats0.fetchRate            0                       # Number of inst fetches per cycle ((Count/Cycle))
system.cpu_cluster.cpus.fetchStats0.branchRate            0                       # Number of branch fetches per cycle (Ratio)
system.cpu_cluster.cpus.fetchStats0.numFetchSuspends       884868                       # Number of times Execute suspended instruction fetching (Count)
system.cpu_cluster.cpus.inst_sequencer.power_state.pwrStateResidencyTicks::UNDEFINED 139284342619750                       # Cumulative time (in ticks) in various power states (Tick)
system.cpu_cluster.cpus.l1d.avg_size         0.003254                       # Avg. number of slots allocated (Unspecified)
system.cpu_cluster.cpus.l1d.avg_util         0.000203                       # Avg. utilization (Unspecified)
system.cpu_cluster.cpus.l1d.avg_reserved     0.000000                       # Avg. number of slots reserved (Unspecified)
system.cpu_cluster.cpus.l1d.avg_size         0.000490                       # Avg. number of slots allocated (Unspecified)
system.cpu_cluster.cpus.l1d.avg_util         0.000031                       # Avg. utilization (Unspecified)
system.cpu_cluster.cpus.l1d.avg_reserved            0                       # Avg. number of slots reserved (Unspecified)
system.cpu_cluster.cpus.l1d.avg_size         0.000000                       # Avg. number of slots allocated (Unspecified)
system.cpu_cluster.cpus.l1d.avg_util         0.000000                       # Avg. utilization (Unspecified)
system.cpu_cluster.cpus.l1d.avg_reserved            0                       # Avg. number of slots reserved (Unspecified)
system.cpu_cluster.cpus.l1d.avg_size                0                       # Avg. number of slots allocated (Unspecified)
system.cpu_cluster.cpus.l1d.avg_util                0                       # Avg. utilization (Unspecified)
system.cpu_cluster.cpus.l1d.avg_reserved            0                       # Avg. number of slots reserved (Unspecified)
system.cpu_cluster.cpus.l1d.avg_size                0                       # Avg. number of slots allocated (Unspecified)
system.cpu_cluster.cpus.l1d.avg_util                0                       # Avg. utilization (Unspecified)
system.cpu_cluster.cpus.l1d.avg_reserved            0                       # Avg. number of slots reserved (Unspecified)
system.cpu_cluster.cpus.l1d.outTransLatHist.SendReadShared::bucket_size         1024                       (Unspecified)
system.cpu_cluster.cpus.l1d.outTransLatHist.SendReadShared::max_bucket         5119                       (Unspecified)
system.cpu_cluster.cpus.l1d.outTransLatHist.SendReadShared::samples      6230783                       (Unspecified)
system.cpu_cluster.cpus.l1d.outTransLatHist.SendReadShared::mean    68.036047                       (Unspecified)
system.cpu_cluster.cpus.l1d.outTransLatHist.SendReadShared::gmean    52.142357                       (Unspecified)
system.cpu_cluster.cpus.l1d.outTransLatHist.SendReadShared::stdev    84.359641                       (Unspecified)
system.cpu_cluster.cpus.l1d.outTransLatHist.SendReadShared |     6223823     99.89%     99.89% |        6831      0.11%    100.00% |         126      0.00%    100.00% |           3      0.00%    100.00% |           0      0.00%    100.00% (Unspecified)
system.cpu_cluster.cpus.l1d.outTransLatHist.SendReadShared::total      6230783                       (Unspecified)
system.cpu_cluster.cpus.l1d.outTransLatHist.SendReadUnique::bucket_size         1024                       (Unspecified)
system.cpu_cluster.cpus.l1d.outTransLatHist.SendReadUnique::max_bucket         5119                       (Unspecified)
system.cpu_cluster.cpus.l1d.outTransLatHist.SendReadUnique::samples      2514727                       (Unspecified)
system.cpu_cluster.cpus.l1d.outTransLatHist.SendReadUnique::mean   115.968682                       (Unspecified)
system.cpu_cluster.cpus.l1d.outTransLatHist.SendReadUnique::gmean    78.929610                       (Unspecified)
system.cpu_cluster.cpus.l1d.outTransLatHist.SendReadUnique::stdev   138.121419                       (Unspecified)
system.cpu_cluster.cpus.l1d.outTransLatHist.SendReadUnique |     2502214     99.50%     99.50% |       11749      0.47%     99.97% |         695      0.03%    100.00% |          64      0.00%    100.00% |           5      0.00%    100.00% (Unspecified)
system.cpu_cluster.cpus.l1d.outTransLatHist.SendReadUnique::total      2514727                       (Unspecified)
system.cpu_cluster.cpus.l1d.outTransLatHist.SendWriteBackOrWriteEvict::bucket_size           32                       (Unspecified)
system.cpu_cluster.cpus.l1d.outTransLatHist.SendWriteBackOrWriteEvict::max_bucket          159                       (Unspecified)
system.cpu_cluster.cpus.l1d.outTransLatHist.SendWriteBackOrWriteEvict::samples      4812200                       (Unspecified)
system.cpu_cluster.cpus.l1d.outTransLatHist.SendWriteBackOrWriteEvict::mean    29.571223                       (Unspecified)
system.cpu_cluster.cpus.l1d.outTransLatHist.SendWriteBackOrWriteEvict::gmean    29.491387                       (Unspecified)
system.cpu_cluster.cpus.l1d.outTransLatHist.SendWriteBackOrWriteEvict::stdev     2.454258                       (Unspecified)
system.cpu_cluster.cpus.l1d.outTransLatHist.SendWriteBackOrWriteEvict |     4519881     93.93%     93.93% |      292032      6.07%     99.99% |          56      0.00%    100.00% |         231      0.00%    100.00% |           0      0.00%    100.00% (Unspecified)
system.cpu_cluster.cpus.l1d.outTransLatHist.SendWriteBackOrWriteEvict::total      4812200                       (Unspecified)
system.cpu_cluster.cpus.l1d.outTransLatHist.SendWriteUnique::bucket_size           64                       (Unspecified)
system.cpu_cluster.cpus.l1d.outTransLatHist.SendWriteUnique::max_bucket          319                       (Unspecified)
system.cpu_cluster.cpus.l1d.outTransLatHist.SendWriteUnique::samples      1345334                       (Unspecified)
system.cpu_cluster.cpus.l1d.outTransLatHist.SendWriteUnique::mean    67.849722                       (Unspecified)
system.cpu_cluster.cpus.l1d.outTransLatHist.SendWriteUnique::gmean    64.668301                       (Unspecified)
system.cpu_cluster.cpus.l1d.outTransLatHist.SendWriteUnique::stdev    19.409177                       (Unspecified)
system.cpu_cluster.cpus.l1d.outTransLatHist.SendWriteUnique |      488972     36.35%     36.35% |      855544     63.59%     99.94% |         818      0.06%    100.00% |           0      0.00%    100.00% |           0      0.00%    100.00% (Unspecified)
system.cpu_cluster.cpus.l1d.outTransLatHist.SendWriteUnique::total      1345334                       (Unspecified)
system.cpu_cluster.cpus.l1d.outTransLatHist.SendEvict::bucket_size           32                       (Unspecified)
system.cpu_cluster.cpus.l1d.outTransLatHist.SendEvict::max_bucket          159                       (Unspecified)
system.cpu_cluster.cpus.l1d.outTransLatHist.SendEvict::samples      3931473                       (Unspecified)
system.cpu_cluster.cpus.l1d.outTransLatHist.SendEvict::mean    29.795849                       (Unspecified)
system.cpu_cluster.cpus.l1d.outTransLatHist.SendEvict::gmean    29.687673                       (Unspecified)
system.cpu_cluster.cpus.l1d.outTransLatHist.SendEvict::stdev     2.836061                       (Unspecified)
system.cpu_cluster.cpus.l1d.outTransLatHist.SendEvict |     3599573     91.56%     91.56% |      331665      8.44%     99.99% |         213      0.01%    100.00% |          21      0.00%    100.00% |           1      0.00%    100.00% (Unspecified)
system.cpu_cluster.cpus.l1d.outTransLatHist.SendEvict::total      3931473                       (Unspecified)
system.cpu_cluster.cpus.l1d.outTransLatHist.SendCleanUnique::bucket_size           32                       (Unspecified)
system.cpu_cluster.cpus.l1d.outTransLatHist.SendCleanUnique::max_bucket          159                       (Unspecified)
system.cpu_cluster.cpus.l1d.outTransLatHist.SendCleanUnique::samples      2298192                       (Unspecified)
system.cpu_cluster.cpus.l1d.outTransLatHist.SendCleanUnique::mean    32.769388                       (Unspecified)
system.cpu_cluster.cpus.l1d.outTransLatHist.SendCleanUnique::gmean    31.821378                       (Unspecified)
system.cpu_cluster.cpus.l1d.outTransLatHist.SendCleanUnique::stdev     9.669499                       (Unspecified)
system.cpu_cluster.cpus.l1d.outTransLatHist.SendCleanUnique |     1945983     84.67%     84.67% |      305193     13.28%     97.95% |       46974      2.04%    100.00% |          42      0.00%    100.00% |           0      0.00%    100.00% (Unspecified)
system.cpu_cluster.cpus.l1d.outTransLatHist.SendCleanUnique::total      2298192                       (Unspecified)
system.cpu_cluster.cpus.l1d.inTransLatHist.Load::bucket_size         1024                       (Unspecified)
system.cpu_cluster.cpus.l1d.inTransLatHist.Load::max_bucket         5119                       (Unspecified)
system.cpu_cluster.cpus.l1d.inTransLatHist.Load::samples    300875116                       (Unspecified)
system.cpu_cluster.cpus.l1d.inTransLatHist.Load::mean     3.367532                       (Unspecified)
system.cpu_cluster.cpus.l1d.inTransLatHist.Load::gmean     2.139721                       (Unspecified)
system.cpu_cluster.cpus.l1d.inTransLatHist.Load::stdev    15.356168                       (Unspecified)
system.cpu_cluster.cpus.l1d.inTransLatHist.Load |   300868156    100.00%    100.00% |        6831      0.00%    100.00% |         126      0.00%    100.00% |           3      0.00%    100.00% |           0      0.00%    100.00% (Unspecified)
system.cpu_cluster.cpus.l1d.inTransLatHist.Load::total    300875116                       (Unspecified)
system.cpu_cluster.cpus.l1d.inTransLatHist.Load.retries    300875116                       (Unspecified)
system.cpu_cluster.cpus.l1d.inTransLatHist.Load.UD.UD.total    208022190                       (Unspecified)
system.cpu_cluster.cpus.l1d.inTransLatHist.Load.UD_T.UD.total           12                       (Unspecified)
system.cpu_cluster.cpus.l1d.inTransLatHist.Load.UD_T.UD_T.total           55                       (Unspecified)
system.cpu_cluster.cpus.l1d.inTransLatHist.Load.SC.SC.total     86622076                       (Unspecified)
system.cpu_cluster.cpus.l1d.inTransLatHist.Load.I.SC.total      6230783                       (Unspecified)
system.cpu_cluster.cpus.l1d.inTransLatHist.Store::bucket_size         1024                       (Unspecified)
system.cpu_cluster.cpus.l1d.inTransLatHist.Store::max_bucket         5119                       (Unspecified)
system.cpu_cluster.cpus.l1d.inTransLatHist.Store::samples    176209159                       (Unspecified)
system.cpu_cluster.cpus.l1d.inTransLatHist.Store::mean     4.538173                       (Unspecified)
system.cpu_cluster.cpus.l1d.inTransLatHist.Store::gmean     2.244206                       (Unspecified)
system.cpu_cluster.cpus.l1d.inTransLatHist.Store::stdev    22.399739                       (Unspecified)
system.cpu_cluster.cpus.l1d.inTransLatHist.Store |   176196646     99.99%     99.99% |       11749      0.01%    100.00% |         695      0.00%    100.00% |          64      0.00%    100.00% |           5      0.00%    100.00% (Unspecified)
system.cpu_cluster.cpus.l1d.inTransLatHist.Store::total    176209159                       (Unspecified)
system.cpu_cluster.cpus.l1d.inTransLatHist.Store.retries    176209160                       (Unspecified)
system.cpu_cluster.cpus.l1d.inTransLatHist.Store.UD.I.total           18                       (Unspecified)
system.cpu_cluster.cpus.l1d.inTransLatHist.Store.UD.UD.total    170050608                       (Unspecified)
system.cpu_cluster.cpus.l1d.inTransLatHist.Store.UD_T.UD.total           90                       (Unspecified)
system.cpu_cluster.cpus.l1d.inTransLatHist.Store.UD_T.UD_T.total          190                       (Unspecified)
system.cpu_cluster.cpus.l1d.inTransLatHist.Store.I.I.total      1345334                       (Unspecified)
system.cpu_cluster.cpus.l1d.inTransLatHist.Store.I.UD.total      2514301                       (Unspecified)
system.cpu_cluster.cpus.l1d.inTransLatHist.Store.I.UD_T.total          426                       (Unspecified)
system.cpu_cluster.cpus.l1d.inTransLatHist.Store.SC.UD.total      2297854                       (Unspecified)
system.cpu_cluster.cpus.l1d.inTransLatHist.Store.SC.UD_T.total          338                       (Unspecified)
system.cpu_cluster.cpus.l1d.inTransLatHist.AtomicLoad::bucket_size            1                       (Unspecified)
system.cpu_cluster.cpus.l1d.inTransLatHist.AtomicLoad::max_bucket            4                       (Unspecified)
system.cpu_cluster.cpus.l1d.inTransLatHist.AtomicLoad::samples            7                       (Unspecified)
system.cpu_cluster.cpus.l1d.inTransLatHist.AtomicLoad::mean            2                       (Unspecified)
system.cpu_cluster.cpus.l1d.inTransLatHist.AtomicLoad::gmean            2                       (Unspecified)
system.cpu_cluster.cpus.l1d.inTransLatHist.AtomicLoad |           0      0.00%      0.00% |           0      0.00%      0.00% |           7    100.00%    100.00% |           0      0.00%    100.00% |           0      0.00%    100.00% (Unspecified)
system.cpu_cluster.cpus.l1d.inTransLatHist.AtomicLoad::total            7                       (Unspecified)
system.cpu_cluster.cpus.l1d.inTransLatHist.AtomicLoad.retries            7                       (Unspecified)
system.cpu_cluster.cpus.l1d.inTransLatHist.AtomicLoad.UD.UD.total            7                       (Unspecified)
system.cpu_cluster.cpus.l1d.inTransLatHist.SnpCleanInvalid::bucket_size            1                       (Unspecified)
system.cpu_cluster.cpus.l1d.inTransLatHist.SnpCleanInvalid::max_bucket            4                       (Unspecified)
system.cpu_cluster.cpus.l1d.inTransLatHist.SnpCleanInvalid::samples          795                       (Unspecified)
system.cpu_cluster.cpus.l1d.inTransLatHist.SnpCleanInvalid::mean     1.450314                       (Unspecified)
system.cpu_cluster.cpus.l1d.inTransLatHist.SnpCleanInvalid::gmean     1.366338                       (Unspecified)
system.cpu_cluster.cpus.l1d.inTransLatHist.SnpCleanInvalid::stdev     0.497838                       (Unspecified)
system.cpu_cluster.cpus.l1d.inTransLatHist.SnpCleanInvalid |           0      0.00%      0.00% |         437     54.97%     54.97% |         358     45.03%    100.00% |           0      0.00%    100.00% |           0      0.00%    100.00% (Unspecified)
system.cpu_cluster.cpus.l1d.inTransLatHist.SnpCleanInvalid::total          795                       (Unspecified)
system.cpu_cluster.cpus.l1d.inTransLatHist.SnpCleanInvalid.UD.I.total          358                       (Unspecified)
system.cpu_cluster.cpus.l1d.inTransLatHist.SnpCleanInvalid.SC.I.total          437                       (Unspecified)
system.cpu_cluster.cpus.l1d.inTransLatHist.SnpShared::bucket_size            1                       (Unspecified)
system.cpu_cluster.cpus.l1d.inTransLatHist.SnpShared::max_bucket            4                       (Unspecified)
system.cpu_cluster.cpus.l1d.inTransLatHist.SnpShared::samples           20                       (Unspecified)
system.cpu_cluster.cpus.l1d.inTransLatHist.SnpShared::mean            4                       (Unspecified)
system.cpu_cluster.cpus.l1d.inTransLatHist.SnpShared::gmean            4                       (Unspecified)
system.cpu_cluster.cpus.l1d.inTransLatHist.SnpShared |           0      0.00%      0.00% |           0      0.00%      0.00% |           0      0.00%      0.00% |           0      0.00%      0.00% |          20    100.00%    100.00% (Unspecified)
system.cpu_cluster.cpus.l1d.inTransLatHist.SnpShared::total           20                       (Unspecified)
system.cpu_cluster.cpus.l1d.inTransLatHist.SnpShared.UD.SC.total           20                       (Unspecified)
system.cpu_cluster.cpus.l1d.inTransLatHist.Local_Eviction::bucket_size           32                       (Unspecified)
system.cpu_cluster.cpus.l1d.inTransLatHist.Local_Eviction::max_bucket          159                       (Unspecified)
system.cpu_cluster.cpus.l1d.inTransLatHist.Local_Eviction::samples      8743673                       (Unspecified)
system.cpu_cluster.cpus.l1d.inTransLatHist.Local_Eviction::mean    31.222587                       (Unspecified)
system.cpu_cluster.cpus.l1d.inTransLatHist.Local_Eviction::gmean    31.130995                       (Unspecified)
system.cpu_cluster.cpus.l1d.inTransLatHist.Local_Eviction::stdev     2.660895                       (Unspecified)
system.cpu_cluster.cpus.l1d.inTransLatHist.Local_Eviction |     8068496     92.28%     92.28% |      674652      7.72%     99.99% |         232      0.00%    100.00% |         292      0.00%    100.00% |           1      0.00%    100.00% (Unspecified)
system.cpu_cluster.cpus.l1d.inTransLatHist.Local_Eviction::total      8743673                       (Unspecified)
system.cpu_cluster.cpus.l1d.inTransLatHist.Local_Eviction.SC.I.total      3931473                       (Unspecified)
system.cpu_cluster.cpus.l1d.inTransLatHist.Local_Eviction.UD.I.total      4812200                       (Unspecified)
system.cpu_cluster.cpus.l1d.cache.numDataArrayReads    469507466                       # Number of data array reads (Unspecified)
system.cpu_cluster.cpus.l1d.cache.numDataArrayWrites    181094615                       # Number of data array writes (Unspecified)
system.cpu_cluster.cpus.l1d.cache.numTagArrayReads    485828771                       # Number of tag array reads (Unspecified)
system.cpu_cluster.cpus.l1d.cache.numTagArrayWrites    189839103                       # Number of tag array writes (Unspecified)
system.cpu_cluster.cpus.l1d.cache.m_demand_hits    571344212                       # Number of cache demand hits (Unspecified)
system.cpu_cluster.cpus.l1d.cache.m_demand_misses     15508830                       # Number of cache demand misses (Unspecified)
system.cpu_cluster.cpus.l1d.cache.m_demand_accesses    586853042                       # Number of cache demand accesses (Unspecified)
system.cpu_cluster.cpus.l1d.datIn.m_msg_count     17491020                       # Number of messages passed the buffer (Count)
system.cpu_cluster.cpus.l1d.datIn.m_buf_msgs     0.000063                       # Average number of messages in buffer ((Count/Tick))
system.cpu_cluster.cpus.l1d.datOut.m_msg_count     12316340                       # Number of messages passed the buffer (Count)
system.cpu_cluster.cpus.l1d.datOut.m_buf_msgs     0.000033                       # Average number of messages in buffer ((Count/Tick))
system.cpu_cluster.cpus.l1d.datOut.m_stall_time   1539735500                       # Total number of ticks messages were stalled in this buffer (Tick)
system.cpu_cluster.cpus.l1d.datOut.m_avg_stall_time   125.015670                       # Average stall ticks per message ((Tick/Count))
system.cpu_cluster.cpus.l1d.mandatoryQueue.m_msg_count    477084283                       # Number of messages passed the buffer (Count)
system.cpu_cluster.cpus.l1d.mandatoryQueue.m_buf_msgs     0.000860                       # Average number of messages in buffer ((Count/Tick))
system.cpu_cluster.cpus.l1d.power_state.pwrStateResidencyTicks::UNDEFINED 139284342619750                       # Cumulative time (in ticks) in various power states (Tick)
system.cpu_cluster.cpus.l1d.replTriggerQueue.m_msg_count      8743673                       # Number of messages passed the buffer (Count)
system.cpu_cluster.cpus.l1d.reqOut.m_msg_count     21132710                       # Number of messages passed the buffer (Count)
system.cpu_cluster.cpus.l1d.reqOut.m_buf_msgs     0.000045                       # Average number of messages in buffer ((Count/Tick))
system.cpu_cluster.cpus.l1d.reqOut.m_stall_time   1032019500                       # Total number of ticks messages were stalled in this buffer (Tick)
system.cpu_cluster.cpus.l1d.reqOut.m_avg_stall_time    48.835171                       # Average stall ticks per message ((Tick/Count))
system.cpu_cluster.cpus.l1d.reqRdy.m_msg_count    477084283                       # Number of messages passed the buffer (Count)
system.cpu_cluster.cpus.l1d.reqRdy.m_buf_msgs     0.000000                       # Average number of messages in buffer ((Count/Tick))
system.cpu_cluster.cpus.l1d.reqRdy.m_stall_time     52102000                       # Total number of ticks messages were stalled in this buffer (Tick)
system.cpu_cluster.cpus.l1d.reqRdy.m_stall_count         8722                       # Number of times messages were stalled (Count)
system.cpu_cluster.cpus.l1d.reqRdy.m_avg_stall_time     0.109209                       # Average stall ticks per message ((Tick/Count))
system.cpu_cluster.cpus.l1d.rspIn.m_msg_count     12387199                       # Number of messages passed the buffer (Count)
system.cpu_cluster.cpus.l1d.rspIn.m_buf_msgs     0.000044                       # Average number of messages in buffer ((Count/Tick))
system.cpu_cluster.cpus.l1d.rspOut.m_msg_count     11044333                       # Number of messages passed the buffer (Count)
system.cpu_cluster.cpus.l1d.rspOut.m_buf_msgs     0.000040                       # Average number of messages in buffer ((Count/Tick))
system.cpu_cluster.cpus.l1d.rspOut.m_stall_time   2760974000                       # Total number of ticks messages were stalled in this buffer (Tick)
system.cpu_cluster.cpus.l1d.rspOut.m_avg_stall_time   249.990108                       # Average stall ticks per message ((Tick/Count))
system.cpu_cluster.cpus.l1d.snpIn.m_msg_count         1267                       # Number of messages passed the buffer (Count)
system.cpu_cluster.cpus.l1d.snpIn.m_buf_msgs     0.000000                       # Average number of messages in buffer ((Count/Tick))
system.cpu_cluster.cpus.l1d.snpRdy.m_msg_count         1267                       # Number of messages passed the buffer (Count)
system.cpu_cluster.cpus.l1d.snpRdy.m_stall_count           36                       # Number of times messages were stalled (Count)
system.cpu_cluster.cpus.l1d.triggerQueue.m_msg_count   2701560305                       # Number of messages passed the buffer (Count)
system.cpu_cluster.cpus.l1d.triggerQueue.m_buf_msgs     0.001695                       # Average number of messages in buffer ((Count/Tick))
system.cpu_cluster.cpus.l1d.triggerQueue.m_stall_time         6000                       # Total number of ticks messages were stalled in this buffer (Tick)
system.cpu_cluster.cpus.l1d.triggerQueue.m_stall_count      8743692                       # Number of times messages were stalled (Count)
system.cpu_cluster.cpus.l1d.triggerQueue.m_avg_stall_time     0.000002                       # Average stall ticks per message ((Tick/Count))
system.cpu_cluster.cpus.l1i.avg_size         0.002916                       # Avg. number of slots allocated (Unspecified)
system.cpu_cluster.cpus.l1i.avg_util         0.000182                       # Avg. utilization (Unspecified)
system.cpu_cluster.cpus.l1i.avg_reserved     0.000000                       # Avg. number of slots reserved (Unspecified)
system.cpu_cluster.cpus.l1i.avg_size         0.001376                       # Avg. number of slots allocated (Unspecified)
system.cpu_cluster.cpus.l1i.avg_util         0.000086                       # Avg. utilization (Unspecified)
system.cpu_cluster.cpus.l1i.avg_reserved            0                       # Avg. number of slots reserved (Unspecified)
system.cpu_cluster.cpus.l1i.avg_size         0.000000                       # Avg. number of slots allocated (Unspecified)
system.cpu_cluster.cpus.l1i.avg_util         0.000000                       # Avg. utilization (Unspecified)
system.cpu_cluster.cpus.l1i.avg_reserved            0                       # Avg. number of slots reserved (Unspecified)
system.cpu_cluster.cpus.l1i.avg_size                0                       # Avg. number of slots allocated (Unspecified)
system.cpu_cluster.cpus.l1i.avg_util                0                       # Avg. utilization (Unspecified)
system.cpu_cluster.cpus.l1i.avg_reserved            0                       # Avg. number of slots reserved (Unspecified)
system.cpu_cluster.cpus.l1i.avg_size                0                       # Avg. number of slots allocated (Unspecified)
system.cpu_cluster.cpus.l1i.avg_util                0                       # Avg. utilization (Unspecified)
system.cpu_cluster.cpus.l1i.avg_reserved            0                       # Avg. number of slots reserved (Unspecified)
system.cpu_cluster.cpus.l1i.outTransLatHist.SendReadShared::bucket_size         1024                       (Unspecified)
system.cpu_cluster.cpus.l1i.outTransLatHist.SendReadShared::max_bucket         5119                       (Unspecified)
system.cpu_cluster.cpus.l1i.outTransLatHist.SendReadShared::samples     25505932                       (Unspecified)
system.cpu_cluster.cpus.l1i.outTransLatHist.SendReadShared::mean    40.937244                       (Unspecified)
system.cpu_cluster.cpus.l1i.outTransLatHist.SendReadShared::gmean    40.384292                       (Unspecified)
system.cpu_cluster.cpus.l1i.outTransLatHist.SendReadShared::stdev    13.117088                       (Unspecified)
system.cpu_cluster.cpus.l1i.outTransLatHist.SendReadShared |    25505395    100.00%    100.00% |         529      0.00%    100.00% |           8      0.00%    100.00% |           0      0.00%    100.00% |           0      0.00%    100.00% (Unspecified)
system.cpu_cluster.cpus.l1i.outTransLatHist.SendReadShared::total     25505932                       (Unspecified)
system.cpu_cluster.cpus.l1i.outTransLatHist.SendEvict::bucket_size           32                       (Unspecified)
system.cpu_cluster.cpus.l1i.outTransLatHist.SendEvict::max_bucket          159                       (Unspecified)
system.cpu_cluster.cpus.l1i.outTransLatHist.SendEvict::samples     25502882                       (Unspecified)
system.cpu_cluster.cpus.l1i.outTransLatHist.SendEvict::mean    29.060649                       (Unspecified)
system.cpu_cluster.cpus.l1i.outTransLatHist.SendEvict::gmean    29.052951                       (Unspecified)
system.cpu_cluster.cpus.l1i.outTransLatHist.SendEvict::stdev     0.762848                       (Unspecified)
system.cpu_cluster.cpus.l1i.outTransLatHist.SendEvict |    25314645     99.26%     99.26% |      188061      0.74%    100.00% |         169      0.00%    100.00% |           7      0.00%    100.00% |           0      0.00%    100.00% (Unspecified)
system.cpu_cluster.cpus.l1i.outTransLatHist.SendEvict::total     25502882                       (Unspecified)
system.cpu_cluster.cpus.l1i.inTransLatHist.Load::bucket_size         1024                       (Unspecified)
system.cpu_cluster.cpus.l1i.inTransLatHist.Load::max_bucket         5119                       (Unspecified)
system.cpu_cluster.cpus.l1i.inTransLatHist.Load::samples    605842550                       (Unspecified)
system.cpu_cluster.cpus.l1i.inTransLatHist.Load::mean     2.681355                       (Unspecified)
system.cpu_cluster.cpus.l1i.inTransLatHist.Load::gmean     1.168480                       (Unspecified)
system.cpu_cluster.cpus.l1i.inTransLatHist.Load::stdev     8.459632                       (Unspecified)
system.cpu_cluster.cpus.l1i.inTransLatHist.Load |   605842013    100.00%    100.00% |         529      0.00%    100.00% |           8      0.00%    100.00% |           0      0.00%    100.00% |           0      0.00%    100.00% (Unspecified)
system.cpu_cluster.cpus.l1i.inTransLatHist.Load::total    605842550                       (Unspecified)
system.cpu_cluster.cpus.l1i.inTransLatHist.Load.retries    605842551                       (Unspecified)
system.cpu_cluster.cpus.l1i.inTransLatHist.Load.SC.SC.total    580336618                       (Unspecified)
system.cpu_cluster.cpus.l1i.inTransLatHist.Load.I.SC.total     25505932                       (Unspecified)
system.cpu_cluster.cpus.l1i.inTransLatHist.SnpCleanInvalid::bucket_size            1                       (Unspecified)
system.cpu_cluster.cpus.l1i.inTransLatHist.SnpCleanInvalid::max_bucket            4                       (Unspecified)
system.cpu_cluster.cpus.l1i.inTransLatHist.SnpCleanInvalid::samples         2538                       (Unspecified)
system.cpu_cluster.cpus.l1i.inTransLatHist.SnpCleanInvalid::mean            1                       (Unspecified)
system.cpu_cluster.cpus.l1i.inTransLatHist.SnpCleanInvalid::gmean            1                       (Unspecified)
system.cpu_cluster.cpus.l1i.inTransLatHist.SnpCleanInvalid |           0      0.00%      0.00% |        2538    100.00%    100.00% |           0      0.00%    100.00% |           0      0.00%    100.00% |           0      0.00%    100.00% (Unspecified)
system.cpu_cluster.cpus.l1i.inTransLatHist.SnpCleanInvalid::total         2538                       (Unspecified)
system.cpu_cluster.cpus.l1i.inTransLatHist.SnpCleanInvalid.SC.I.total         2538                       (Unspecified)
system.cpu_cluster.cpus.l1i.inTransLatHist.Local_Eviction::bucket_size           32                       (Unspecified)
system.cpu_cluster.cpus.l1i.inTransLatHist.Local_Eviction::max_bucket          159                       (Unspecified)
system.cpu_cluster.cpus.l1i.inTransLatHist.Local_Eviction::samples     25502882                       (Unspecified)
system.cpu_cluster.cpus.l1i.inTransLatHist.Local_Eviction::mean    30.060649                       (Unspecified)
system.cpu_cluster.cpus.l1i.inTransLatHist.Local_Eviction::gmean    30.053154                       (Unspecified)
system.cpu_cluster.cpus.l1i.inTransLatHist.Local_Eviction::stdev     0.762848                       (Unspecified)
system.cpu_cluster.cpus.l1i.inTransLatHist.Local_Eviction |    25238259     98.96%     98.96% |      264137      1.04%    100.00% |         478      0.00%    100.00% |           8      0.00%    100.00% |           0      0.00%    100.00% (Unspecified)
system.cpu_cluster.cpus.l1i.inTransLatHist.Local_Eviction::total     25502882                       (Unspecified)
system.cpu_cluster.cpus.l1i.inTransLatHist.Local_Eviction.SC.I.total     25502882                       (Unspecified)
system.cpu_cluster.cpus.l1i.cache.numDataArrayReads    580336618                       # Number of data array reads (Unspecified)
system.cpu_cluster.cpus.l1i.cache.numDataArrayWrites     25505932                       # Number of data array writes (Unspecified)
system.cpu_cluster.cpus.l1i.cache.numTagArrayReads    631347971                       # Number of tag array reads (Unspecified)
system.cpu_cluster.cpus.l1i.cache.numTagArrayWrites     51011352                       # Number of tag array writes (Unspecified)
system.cpu_cluster.cpus.l1i.cache.m_demand_hits    580336618                       # Number of cache demand hits (Unspecified)
system.cpu_cluster.cpus.l1i.cache.m_demand_misses     25505933                       # Number of cache demand misses (Unspecified)
system.cpu_cluster.cpus.l1i.cache.m_demand_accesses    605842551                       # Number of cache demand accesses (Unspecified)
system.cpu_cluster.cpus.l1i.datIn.m_msg_count     51011864                       # Number of messages passed the buffer (Count)
system.cpu_cluster.cpus.l1i.datIn.m_buf_msgs     0.000183                       # Average number of messages in buffer ((Count/Tick))
system.cpu_cluster.cpus.l1i.mandatoryQueue.m_msg_count    605842551                       # Number of messages passed the buffer (Count)
system.cpu_cluster.cpus.l1i.mandatoryQueue.m_buf_msgs     0.001088                       # Average number of messages in buffer ((Count/Tick))
system.cpu_cluster.cpus.l1i.power_state.pwrStateResidencyTicks::UNDEFINED 139284342619750                       # Cumulative time (in ticks) in various power states (Tick)
system.cpu_cluster.cpus.l1i.replTriggerQueue.m_msg_count     25502882                       # Number of messages passed the buffer (Count)
system.cpu_cluster.cpus.l1i.reqOut.m_msg_count     51008815                       # Number of messages passed the buffer (Count)
system.cpu_cluster.cpus.l1i.reqOut.m_buf_msgs     0.000123                       # Average number of messages in buffer ((Count/Tick))
system.cpu_cluster.cpus.l1i.reqOut.m_stall_time   4349552750                       # Total number of ticks messages were stalled in this buffer (Tick)
system.cpu_cluster.cpus.l1i.reqOut.m_avg_stall_time    85.270610                       # Average stall ticks per message ((Tick/Count))
system.cpu_cluster.cpus.l1i.reqRdy.m_msg_count    605842551                       # Number of messages passed the buffer (Count)
system.cpu_cluster.cpus.l1i.reqRdy.m_buf_msgs     0.000000                       # Average number of messages in buffer ((Count/Tick))
system.cpu_cluster.cpus.l1i.reqRdy.m_stall_time     55930250                       # Total number of ticks messages were stalled in this buffer (Tick)
system.cpu_cluster.cpus.l1i.reqRdy.m_stall_count        13807                       # Number of times messages were stalled (Count)
system.cpu_cluster.cpus.l1i.reqRdy.m_avg_stall_time     0.092318                       # Average stall ticks per message ((Tick/Count))
system.cpu_cluster.cpus.l1i.rspIn.m_msg_count     25502882                       # Number of messages passed the buffer (Count)
system.cpu_cluster.cpus.l1i.rspIn.m_buf_msgs     0.000092                       # Average number of messages in buffer ((Count/Tick))
system.cpu_cluster.cpus.l1i.rspOut.m_msg_count     25508487                       # Number of messages passed the buffer (Count)
system.cpu_cluster.cpus.l1i.rspOut.m_buf_msgs     0.000092                       # Average number of messages in buffer ((Count/Tick))
system.cpu_cluster.cpus.l1i.rspOut.m_stall_time   6376487250                       # Total number of ticks messages were stalled in this buffer (Tick)
system.cpu_cluster.cpus.l1i.rspOut.m_avg_stall_time   249.975126                       # Average stall ticks per message ((Tick/Count))
system.cpu_cluster.cpus.l1i.snpIn.m_msg_count         2555                       # Number of messages passed the buffer (Count)
system.cpu_cluster.cpus.l1i.snpIn.m_buf_msgs     0.000000                       # Average number of messages in buffer ((Count/Tick))
system.cpu_cluster.cpus.l1i.snpRdy.m_msg_count         2555                       # Number of messages passed the buffer (Count)
system.cpu_cluster.cpus.l1i.triggerQueue.m_msg_count   2627420754                       # Number of messages passed the buffer (Count)
system.cpu_cluster.cpus.l1i.triggerQueue.m_buf_msgs     0.001087                       # Average number of messages in buffer ((Count/Tick))
system.cpu_cluster.cpus.l1i.triggerQueue.m_stall_count     25502882                       # Number of times messages were stalled (Count)
system.cpu_cluster.cpus.l2.avg_size          0.003635                       # Avg. number of slots allocated (Unspecified)
system.cpu_cluster.cpus.l2.avg_util          0.000114                       # Avg. utilization (Unspecified)
system.cpu_cluster.cpus.l2.avg_reserved      0.000000                       # Avg. number of slots reserved (Unspecified)
system.cpu_cluster.cpus.l2.avg_size          0.000201                       # Avg. number of slots allocated (Unspecified)
system.cpu_cluster.cpus.l2.avg_util          0.000006                       # Avg. utilization (Unspecified)
system.cpu_cluster.cpus.l2.avg_reserved             0                       # Avg. number of slots reserved (Unspecified)
system.cpu_cluster.cpus.l2.avg_size          0.000000                       # Avg. number of slots allocated (Unspecified)
system.cpu_cluster.cpus.l2.avg_util          0.000000                       # Avg. utilization (Unspecified)
system.cpu_cluster.cpus.l2.avg_reserved             0                       # Avg. number of slots reserved (Unspecified)
system.cpu_cluster.cpus.l2.avg_size                 0                       # Avg. number of slots allocated (Unspecified)
system.cpu_cluster.cpus.l2.avg_util                 0                       # Avg. utilization (Unspecified)
system.cpu_cluster.cpus.l2.avg_reserved             0                       # Avg. number of slots reserved (Unspecified)
system.cpu_cluster.cpus.l2.avg_size                 0                       # Avg. number of slots allocated (Unspecified)
system.cpu_cluster.cpus.l2.avg_util                 0                       # Avg. utilization (Unspecified)
system.cpu_cluster.cpus.l2.avg_reserved             0                       # Avg. number of slots reserved (Unspecified)
system.cpu_cluster.cpus.l2.outTransLatHist.SendReadShared::bucket_size         1024                       (Unspecified)
system.cpu_cluster.cpus.l2.outTransLatHist.SendReadShared::max_bucket         5119                       (Unspecified)
system.cpu_cluster.cpus.l2.outTransLatHist.SendReadShared::samples      1646336                       (Unspecified)
system.cpu_cluster.cpus.l2.outTransLatHist.SendReadShared::mean   128.371006                       (Unspecified)
system.cpu_cluster.cpus.l2.outTransLatHist.SendReadShared::gmean    95.011905                       (Unspecified)
system.cpu_cluster.cpus.l2.outTransLatHist.SendReadShared::stdev   131.508099                       (Unspecified)
system.cpu_cluster.cpus.l2.outTransLatHist.SendReadShared |     1638925     99.55%     99.55% |        7281      0.44%     99.99% |         127      0.01%    100.00% |           3      0.00%    100.00% |           0      0.00%    100.00% (Unspecified)
system.cpu_cluster.cpus.l2.outTransLatHist.SendReadShared::total      1646336                       (Unspecified)
system.cpu_cluster.cpus.l2.outTransLatHist.SendReadUnique::bucket_size         1024                       (Unspecified)
system.cpu_cluster.cpus.l2.outTransLatHist.SendReadUnique::max_bucket         5119                       (Unspecified)
system.cpu_cluster.cpus.l2.outTransLatHist.SendReadUnique::samples      1156290                       (Unspecified)
system.cpu_cluster.cpus.l2.outTransLatHist.SendReadUnique::mean   170.649123                       (Unspecified)
system.cpu_cluster.cpus.l2.outTransLatHist.SendReadUnique::gmean   130.588317                       (Unspecified)
system.cpu_cluster.cpus.l2.outTransLatHist.SendReadUnique::stdev   164.542712                       (Unspecified)
system.cpu_cluster.cpus.l2.outTransLatHist.SendReadUnique |     1144006     98.94%     98.94% |       11552      1.00%     99.94% |         672      0.06%     99.99% |          56      0.00%    100.00% |           4      0.00%    100.00% (Unspecified)
system.cpu_cluster.cpus.l2.outTransLatHist.SendReadUnique::total      1156290                       (Unspecified)
system.cpu_cluster.cpus.l2.outTransLatHist.SendWriteBackOrWriteEvict::bucket_size           32                       (Unspecified)
system.cpu_cluster.cpus.l2.outTransLatHist.SendWriteBackOrWriteEvict::max_bucket          159                       (Unspecified)
system.cpu_cluster.cpus.l2.outTransLatHist.SendWriteBackOrWriteEvict::samples      1971608                       (Unspecified)
system.cpu_cluster.cpus.l2.outTransLatHist.SendWriteBackOrWriteEvict::mean    38.937664                       (Unspecified)
system.cpu_cluster.cpus.l2.outTransLatHist.SendWriteBackOrWriteEvict::gmean    38.644841                       (Unspecified)
system.cpu_cluster.cpus.l2.outTransLatHist.SendWriteBackOrWriteEvict::stdev     4.619198                       (Unspecified)
[...]
system.ruby.network.routers9.throttle02.link_utilization     0.036288                       # Average link utilization (Ratio)
system.ruby.network.routers9.throttle02.total_msg_count    130488106                       # Total number of messages forwarded by this switch (Count)
system.ruby.network.routers9.throttle02.total_msg_bytes   1617395792                       # Total number of bytes forwarded by this switch (Byte)
system.ruby.network.routers9.throttle02.total_data_msg_bytes    573490944                       # Total number of data bytes forwarded by this switch (Byte)
system.ruby.network.routers9.throttle02.total_msg_wait_time   5528047500                       # Total time spend forwarding messages (Tick)
system.ruby.network.routers9.throttle02.total_stall_cy            0                       # Total time spent blocked on any output link (Cycle)
system.ruby.network.routers9.throttle02.total_bw_sat_cy     38604024                       # Total time bandwidth was saturated on any output link (Cycle)
system.ruby.network.routers9.throttle02.avg_msg_wait_time    42.364378                       # Average time a message took to be forwarded (Ratio)
system.ruby.network.routers9.throttle02.avg_bandwidth         0.01                       # Average bandwidth (GB/s) (Ratio)
system.ruby.network.routers9.throttle02.avg_useful_bandwidth         0.00                       # Average usefull (only data) bandwidth (GB/s) (Ratio)
system.ruby.network.routers9.throttle02.msg_count.Control::0     72141524                       (Unspecified)
system.ruby.network.routers9.throttle02.msg_count.Control::1        23451                       (Unspecified)
system.ruby.network.routers9.throttle02.msg_count.Control::2     40401539                       (Unspecified)
system.ruby.network.routers9.throttle02.msg_bytes.Control::0    577132192                       (Unspecified)
system.ruby.network.routers9.throttle02.msg_bytes.Control::1       187608                       (Unspecified)
system.ruby.network.routers9.throttle02.msg_bytes.Control::2    323212312                       (Unspecified)
system.ruby.network.routers9.throttle02.msg_count.Data::3     17921592                       (Unspecified)
system.ruby.network.routers9.throttle02.msg_bytes.Data::3    716863680                       (Unspecified)
system.ruby.network.routers9.throttle03.acc_link_utilization            0                       # Accumulated link utilization (Count)
system.ruby.network.routers9.throttle03.link_utilization            0                       # Average link utilization (Ratio)
system.ruby.network.routers9.throttle03.total_msg_count            0                       # Total number of messages forwarded by this switch (Count)
system.ruby.network.routers9.throttle03.total_msg_bytes            0                       # Total number of bytes forwarded by this switch (Byte)
system.ruby.network.routers9.throttle03.total_data_msg_bytes            0                       # Total number of data bytes forwarded by this switch (Byte)
system.ruby.network.routers9.throttle03.total_msg_wait_time            0                       # Total time spend forwarding messages (Tick)
system.ruby.network.routers9.throttle03.total_stall_cy            0                       # Total time spent blocked on any output link (Cycle)
system.ruby.network.routers9.throttle03.total_bw_sat_cy            0                       # Total time bandwidth was saturated on any output link (Cycle)
system.ruby.network.routers9.throttle03.avg_msg_wait_time          nan                       # Average time a message took to be forwarded (Ratio)
system.ruby.network.routers9.throttle03.avg_bandwidth         0.00                       # Average bandwidth (GB/s) (Ratio)
system.ruby.network.routers9.throttle03.avg_useful_bandwidth         0.00                       # Average usefull (only data) bandwidth (GB/s) (Ratio)
system.ruby.network.routers9.throttle04.acc_link_utilization     19783361                       # Accumulated link utilization (Count)
system.ruby.network.routers9.throttle04.link_utilization     0.007102                       # Average link utilization (Ratio)
system.ruby.network.routers9.throttle04.total_msg_count     16865866                       # Total number of messages forwarded by this switch (Count)
system.ruby.network.routers9.throttle04.total_msg_bytes    316533776                       # Total number of bytes forwarded by this switch (Byte)
system.ruby.network.routers9.throttle04.total_data_msg_bytes    181606848                       # Total number of data bytes forwarded by this switch (Byte)
system.ruby.network.routers9.throttle04.total_msg_wait_time     18256500                       # Total time spend forwarding messages (Tick)
system.ruby.network.routers9.throttle04.total_stall_cy            0                       # Total time spent blocked on any output link (Cycle)
system.ruby.network.routers9.throttle04.total_bw_sat_cy     11369391                       # Total time bandwidth was saturated on any output link (Cycle)
system.ruby.network.routers9.throttle04.avg_msg_wait_time     1.082453                       # Average time a message took to be forwarded (Ratio)
system.ruby.network.routers9.throttle04.avg_bandwidth         0.00                       # Average bandwidth (GB/s) (Ratio)
system.ruby.network.routers9.throttle04.avg_useful_bandwidth         0.00                       # Average usefull (only data) bandwidth (GB/s) (Ratio)
system.ruby.network.routers9.throttle04.msg_count.Control::0      6651345                       (Unspecified)
system.ruby.network.routers9.throttle04.msg_count.Control::2      4539307                       (Unspecified)
system.ruby.network.routers9.throttle04.msg_bytes.Control::0     53210760                       (Unspecified)
system.ruby.network.routers9.throttle04.msg_bytes.Control::2     36314456                       (Unspecified)
system.ruby.network.routers9.throttle04.msg_count.Data::3      5675214                       (Unspecified)
system.ruby.network.routers9.throttle04.msg_bytes.Data::3    227008560                       (Unspecified)
system.ruby.network.routers9.throttle05.acc_link_utilization 8765408.500000                       # Accumulated link utilization (Count)
system.ruby.network.routers9.throttle05.link_utilization     0.003147                       # Average link utilization (Ratio)
system.ruby.network.routers9.throttle05.total_msg_count      5715481                       # Total number of messages forwarded by this switch (Count)
system.ruby.network.routers9.throttle05.total_msg_bytes    140246536                       # Total number of bytes forwarded by this switch (Byte)
system.ruby.network.routers9.throttle05.total_data_msg_bytes     94522688                       # Total number of data bytes forwarded by this switch (Byte)
system.ruby.network.routers9.throttle05.total_msg_wait_time       144000                       # Total time spend forwarding messages (Tick)
system.ruby.network.routers9.throttle05.total_stall_cy            0                       # Total time spent blocked on any output link (Cycle)
system.ruby.network.routers9.throttle05.total_bw_sat_cy      5907843                       # Total time bandwidth was saturated on any output link (Cycle)
system.ruby.network.routers9.throttle05.avg_msg_wait_time     0.025195                       # Average time a message took to be forwarded (Ratio)
system.ruby.network.routers9.throttle05.avg_bandwidth         0.00                       # Average bandwidth (GB/s) (Ratio)
system.ruby.network.routers9.throttle05.avg_useful_bandwidth         0.00                       # Average usefull (only data) bandwidth (GB/s) (Ratio)
system.ruby.network.routers9.throttle05.msg_count.Control::0      2761647                       (Unspecified)
system.ruby.network.routers9.throttle05.msg_bytes.Control::0     22093176                       (Unspecified)
system.ruby.network.routers9.throttle05.msg_count.Data::3      2953834                       (Unspecified)
system.ruby.network.routers9.throttle05.msg_bytes.Data::3    118153360                       (Unspecified)
system.ruby.network.routers9.throttle06.acc_link_utilization     3.500000                       # Accumulated link utilization (Count)
system.ruby.network.routers9.throttle06.link_utilization     0.000000                       # Average link utilization (Ratio)
system.ruby.network.routers9.throttle06.total_msg_count            7                       # Total number of messages forwarded by this switch (Count)
system.ruby.network.routers9.throttle06.total_msg_bytes           56                       # Total number of bytes forwarded by this switch (Byte)
system.ruby.network.routers9.throttle06.total_data_msg_bytes            0                       # Total number of data bytes forwarded by this switch (Byte)
system.ruby.network.routers9.throttle06.total_msg_wait_time            0                       # Total time spend forwarding messages (Tick)
system.ruby.network.routers9.throttle06.total_stall_cy            0                       # Total time spent blocked on any output link (Cycle)
system.ruby.network.routers9.throttle06.total_bw_sat_cy            0                       # Total time bandwidth was saturated on any output link (Cycle)
system.ruby.network.routers9.throttle06.avg_msg_wait_time            0                       # Average time a message took to be forwarded (Ratio)
system.ruby.network.routers9.throttle06.avg_bandwidth         0.00                       # Average bandwidth (GB/s) (Ratio)
system.ruby.network.routers9.throttle06.avg_useful_bandwidth         0.00                       # Average usefull (only data) bandwidth (GB/s) (Ratio)
system.ruby.network.routers9.throttle06.msg_count.Control::0            7                       (Unspecified)
system.ruby.network.routers9.throttle06.msg_bytes.Control::0           56                       (Unspecified)
system.ruby.network.routers9.throttle07.acc_link_utilization            0                       # Accumulated link utilization (Count)
system.ruby.network.routers9.throttle07.link_utilization            0                       # Average link utilization (Ratio)
system.ruby.network.routers9.throttle07.total_msg_count            0                       # Total number of messages forwarded by this switch (Count)
system.ruby.network.routers9.throttle07.total_msg_bytes            0                       # Total number of bytes forwarded by this switch (Byte)
system.ruby.network.routers9.throttle07.total_data_msg_bytes            0                       # Total number of data bytes forwarded by this switch (Byte)
system.ruby.network.routers9.throttle07.total_msg_wait_time            0                       # Total time spend forwarding messages (Tick)
system.ruby.network.routers9.throttle07.total_stall_cy            0                       # Total time spent blocked on any output link (Cycle)
system.ruby.network.routers9.throttle07.total_bw_sat_cy            0                       # Total time bandwidth was saturated on any output link (Cycle)
system.ruby.network.routers9.throttle07.avg_msg_wait_time          nan                       # Average time a message took to be forwarded (Ratio)
system.ruby.network.routers9.throttle07.avg_bandwidth         0.00                       # Average bandwidth (GB/s) (Ratio)
system.ruby.network.routers9.throttle07.avg_useful_bandwidth         0.00                       # Average usefull (only data) bandwidth (GB/s) (Ratio)
system.ruby.network.routers9.throttle08.acc_link_utilization            0                       # Accumulated link utilization (Count)
system.ruby.network.routers9.throttle08.link_utilization            0                       # Average link utilization (Ratio)
system.ruby.network.routers9.throttle08.total_msg_count            0                       # Total number of messages forwarded by this switch (Count)
system.ruby.network.routers9.throttle08.total_msg_bytes            0                       # Total number of bytes forwarded by this switch (Byte)
system.ruby.network.routers9.throttle08.total_data_msg_bytes            0                       # Total number of data bytes forwarded by this switch (Byte)
system.ruby.network.routers9.throttle08.total_msg_wait_time            0                       # Total time spend forwarding messages (Tick)
system.ruby.network.routers9.throttle08.total_stall_cy            0                       # Total time spent blocked on any output link (Cycle)
system.ruby.network.routers9.throttle08.total_bw_sat_cy            0                       # Total time bandwidth was saturated on any output link (Cycle)
system.ruby.network.routers9.throttle08.avg_msg_wait_time          nan                       # Average time a message took to be forwarded (Ratio)
system.ruby.network.routers9.throttle08.avg_bandwidth         0.00                       # Average bandwidth (GB/s) (Ratio)
system.ruby.network.routers9.throttle08.avg_useful_bandwidth         0.00                       # Average usefull (only data) bandwidth (GB/s) (Ratio)
system.ruby.power_state.pwrStateResidencyTicks::UNDEFINED 139284342619750                       # Cumulative time (in ticks) in various power states (Tick)
system.ruby.rom_snf.cntrl.avg_size           0.000000                       # Avg. number of slots allocated (Unspecified)
system.ruby.rom_snf.cntrl.avg_util           0.000000                       # Avg. utilization (Unspecified)
system.ruby.rom_snf.cntrl.avg_reserved              0                       # Avg. number of slots reserved (Unspecified)
system.ruby.rom_snf.cntrl.datOut.m_msg_count           14                       # Number of messages passed the buffer (Count)
system.ruby.rom_snf.cntrl.datOut.m_buf_msgs     0.000000                       # Average number of messages in buffer ((Count/Tick))
system.ruby.rom_snf.cntrl.power_state.pwrStateResidencyTicks::UNDEFINED 139284342619750                       # Cumulative time (in ticks) in various power states (Tick)
system.ruby.rom_snf.cntrl.reqIn.m_msg_count            7                       # Number of messages passed the buffer (Count)
system.ruby.rom_snf.cntrl.reqIn.m_buf_msgs     0.000000                       # Average number of messages in buffer ((Count/Tick))
system.ruby.rom_snf.cntrl.reqRdy.m_msg_count            7                       # Number of messages passed the buffer (Count)
system.ruby.rom_snf.cntrl.requestToMemory.m_msg_count            7                       # Number of messages passed the buffer (Count)
system.ruby.rom_snf.cntrl.requestToMemory.m_buf_msgs     0.000000                       # Average number of messages in buffer ((Count/Tick))
system.ruby.rom_snf.cntrl.requestToMemory.m_stall_time         4672                       # Total number of ticks messages were stalled in this buffer (Tick)
system.ruby.rom_snf.cntrl.requestToMemory.m_avg_stall_time   667.428571                       # Average stall ticks per message ((Tick/Count))
system.ruby.rom_snf.cntrl.requestToMemory.m_occupancy     0.000000                       # Average occupancy of buffer capacity ((Ratio/Tick))
system.ruby.rom_snf.cntrl.responseFromMemory.m_msg_count            7                       # Number of messages passed the buffer (Count)
system.ruby.rom_snf.cntrl.responseFromMemory.m_buf_msgs     0.000000                       # Average number of messages in buffer ((Count/Tick))
system.ruby.rom_snf.cntrl.triggerQueue.m_msg_count           21                       # Number of messages passed the buffer (Count)
system.ruby.rom_snf.cntrl.triggerQueue.m_buf_msgs     0.000000                       # Average number of messages in buffer ((Count/Tick))
system.ruby.snf.cntrl.avg_size               0.000552                       # Avg. number of slots allocated (Unspecified)
system.ruby.snf.cntrl.avg_util               0.000002                       # Avg. utilization (Unspecified)
system.ruby.snf.cntrl.avg_reserved                  0                       # Avg. number of slots reserved (Unspecified)
system.ruby.snf.cntrl.datIn.m_msg_count       2953834                       # Number of messages passed the buffer (Count)
system.ruby.snf.cntrl.datIn.m_buf_msgs       0.000011                       # Average number of messages in buffer ((Count/Tick))
system.ruby.snf.cntrl.datOut.m_msg_count      2569460                       # Number of messages passed the buffer (Count)
system.ruby.snf.cntrl.datOut.m_buf_msgs      0.000009                       # Average number of messages in buffer ((Count/Tick))
system.ruby.snf.cntrl.power_state.pwrStateResidencyTicks::UNDEFINED 139284342619750                       # Cumulative time (in ticks) in various power states (Tick)
system.ruby.snf.cntrl.reqIn.m_msg_count       2761647                       # Number of messages passed the buffer (Count)
system.ruby.snf.cntrl.reqIn.m_buf_msgs       0.000010                       # Average number of messages in buffer ((Count/Tick))
system.ruby.snf.cntrl.reqRdy.m_msg_count      2761647                       # Number of messages passed the buffer (Count)
system.ruby.snf.cntrl.requestToMemory.m_not_avail_count          711                       # Number of times this buffer did not have N slots available (Count)
system.ruby.snf.cntrl.requestToMemory.m_msg_count      2761647                       # Number of messages passed the buffer (Count)
system.ruby.snf.cntrl.requestToMemory.m_buf_msgs     0.000010                       # Average number of messages in buffer ((Count/Tick))
system.ruby.snf.cntrl.requestToMemory.m_stall_time      1090250                       # Total number of ticks messages were stalled in this buffer (Tick)
system.ruby.snf.cntrl.requestToMemory.m_avg_stall_time     0.394783                       # Average stall ticks per message ((Tick/Count))
system.ruby.snf.cntrl.requestToMemory.m_occupancy     0.000005                       # Average occupancy of buffer capacity ((Ratio/Tick))
system.ruby.snf.cntrl.responseFromMemory.m_msg_count      2761647                       # Number of messages passed the buffer (Count)
system.ruby.snf.cntrl.responseFromMemory.m_buf_msgs     0.000012                       # Average number of messages in buffer ((Count/Tick))
system.ruby.snf.cntrl.rspOut.m_msg_count      1476917                       # Number of messages passed the buffer (Count)
system.ruby.snf.cntrl.rspOut.m_buf_msgs      0.000011                       # Average number of messages in buffer ((Count/Tick))
system.ruby.snf.cntrl.triggerQueue.m_msg_count      5331107                       # Number of messages passed the buffer (Count)
system.ruby.snf.cntrl.triggerQueue.m_buf_msgs     0.000005                       # Average number of messages in buffer ((Count/Tick))
system.ruby.snf.cntrl.triggerQueue.m_stall_time       935000                       # Total number of ticks messages were stalled in this buffer (Tick)
system.ruby.snf.cntrl.triggerQueue.m_avg_stall_time     0.175386                       # Average stall ticks per message ((Tick/Count))
system.sys_port_proxy.power_state.pwrStateResidencyTicks::UNDEFINED 139284342619750                       # Cumulative time (in ticks) in various power states (Tick)
system.voltage_domain.voltage                       1                       # Voltage in Volts (Volt)
system.workload.inst.arm                            0                       # number of arm instructions executed (Count)
system.workload.inst.quiesce                   884868                       # number of quiesce instructions executed (Count)
system.cpu_cluster.cpus.idleCycles         1634426935                       # Total number of cycles that the object has spent stopped (Unspecified)
system.cpu_cluster.cpus.tickCycles         2860952611                       # Number of cycles that the object actually ticked (Unspecified)

---------- End Simulation Statistics   ----------
