Global frequency set at 1000000000000 ticks per second
      0: board.platform.rtc: Real-time clock set to Sun Jan  1 00:00:00 2012
gem5 Simulator System.  https://www.gem5.org
gem5 is copyrighted software; use the --copyright option for details.

gem5 version 23.1.0.0
gem5 compiled Mar 26 2024 23:39:26
gem5 started Mar 27 2024 01:02:26
gem5 executing on francio-ThinkPad-P15v-Gen-1, pid 11407
command line: ./gem5/build/RISCV/gem5.opt --debug-flags=MMU,TLB,TLBVerbose,PageTableWalker --debug-start=1532926580000 gem5/configs/example/gem5_library/riscv-fs.py

info: Using default config
Beginning simulation!
9528624000: board.platform.terminal: attach terminal 0
1532926621000: board.processor.cores.core.mmu.itb: lookup(vpn=0x17240, asid=0): hit ppn 0x101029
1532926621000: board.processor.cores.core.mmu.itb: translate(vpn=0x17240, asid=0): 0x101029240
1532926707000: board.processor.cores.core.mmu.itb: lookup(vpn=0x17244, asid=0): hit ppn 0x101029
1532926707000: board.processor.cores.core.mmu.itb: translate(vpn=0x17244, asid=0): 0x101029244
1532926709000: board.processor.cores.core.mmu.itb: lookup(vpn=0x17248, asid=0): hit ppn 0x101029
1532926709000: board.processor.cores.core.mmu.itb: translate(vpn=0x17248, asid=0): 0x101029248
1532926711000: board.processor.cores.core.mmu.itb: lookup(vpn=0x1724c, asid=0): hit ppn 0x101029
1532926711000: board.processor.cores.core.mmu.itb: translate(vpn=0x1724c, asid=0): 0x10102924c
1532926713000: board.processor.cores.core.mmu.dtb: lookup(vpn=0x7f5c0, asid=0): hit ppn 0x101034
1532926713000: board.processor.cores.core.mmu.dtb: translate(vpn=0x7f5c0, asid=0): 0x1010345c0
1532926715000: board.processor.cores.core.mmu.itb: lookup(vpn=0x17250, asid=0): hit ppn 0x101029
1532926715000: board.processor.cores.core.mmu.itb: translate(vpn=0x17250, asid=0): 0x101029250
1532926717000: board.processor.cores.core.mmu.itb: lookup(vpn=0x17254, asid=0): hit ppn 0x101029
1532926717000: board.processor.cores.core.mmu.itb: translate(vpn=0x17254, asid=0): 0x101029254
1532926719000: board.processor.cores.core.mmu.itb: lookup(vpn=0x17258, asid=0): hit ppn 0x101029
1532926719000: board.processor.cores.core.mmu.itb: translate(vpn=0x17258, asid=0): 0x101029258
1532926721000: board.processor.cores.core.mmu.itb: lookup(vpn=0x1088c, asid=0): hit ppn 0x101011
1532926721000: board.processor.cores.core.mmu.itb: translate(vpn=0x1088c, asid=0): 0x10101188c
1532926723000: board.processor.cores.core.mmu.itb: lookup(vpn=0x1088c, asid=0): hit ppn 0x101011
1532926723000: board.processor.cores.core.mmu.itb: translate(vpn=0x1088c, asid=0): 0x10101188c
1532926725000: board.processor.cores.core.mmu.itb: lookup(vpn=0x10890, asid=0): hit ppn 0x101011
1532926725000: board.processor.cores.core.mmu.itb: translate(vpn=0x10890, asid=0): 0x101011890
1532926727000: board.processor.cores.core.mmu.itb: lookup(vpn=0x10890, asid=0): hit ppn 0x101011
1532926727000: board.processor.cores.core.mmu.itb: translate(vpn=0x10890, asid=0): 0x101011890
1532926729000: board.processor.cores.core.mmu.itb: lookup(vpn=0x10894, asid=0): hit ppn 0x101011
1532926729000: board.processor.cores.core.mmu.itb: translate(vpn=0x10894, asid=0): 0x101011894
1532926731000: board.processor.cores.core.mmu.itb: lookup(vpn=0x10620, asid=0): hit ppn 0x101011
1532926731000: board.processor.cores.core.mmu.itb: translate(vpn=0x10620, asid=0): 0x101011620
1532926803000: board.processor.cores.core.mmu.itb: lookup(vpn=0x10620, asid=0): hit ppn 0x101011
1532926803000: board.processor.cores.core.mmu.itb: translate(vpn=0x10620, asid=0): 0x101011620
1532926805000: board.processor.cores.core.mmu.itb: lookup(vpn=0x10624, asid=0): hit ppn 0x101011
1532926805000: board.processor.cores.core.mmu.itb: translate(vpn=0x10624, asid=0): 0x101011624
1532926807000: board.processor.cores.core.mmu.itb: lookup(vpn=0x10624, asid=0): hit ppn 0x101011
1532926807000: board.processor.cores.core.mmu.itb: translate(vpn=0x10624, asid=0): 0x101011624
1532926809000: board.processor.cores.core.mmu.dtb: lookup(vpn=0x3fffa28cf8, asid=0): hit ppn 0x101015
1532926809000: board.processor.cores.core.mmu.dtb: translate(vpn=0x3fffa28cf8, asid=0): 0x101015cf8
1532926811000: board.processor.cores.core.mmu.itb: lookup(vpn=0x10628, asid=0): hit ppn 0x101011
1532926811000: board.processor.cores.core.mmu.itb: translate(vpn=0x10628, asid=0): 0x101011628
1532926813000: board.processor.cores.core.mmu.dtb: lookup(vpn=0x3fffa28bd8, asid=0): hit ppn 0x101015
1532926813000: board.processor.cores.core.mmu.dtb: translate(vpn=0x3fffa28bd8, asid=0): 0x101015bd8
1532926815000: board.processor.cores.core.mmu.itb: lookup(vpn=0x10628, asid=0): hit ppn 0x101011
1532926815000: board.processor.cores.core.mmu.itb: translate(vpn=0x10628, asid=0): 0x101011628
1532926817000: board.processor.cores.core.mmu.dtb: lookup(vpn=0x3fffa28be0, asid=0): hit ppn 0x101015
1532926817000: board.processor.cores.core.mmu.dtb: translate(vpn=0x3fffa28be0, asid=0): 0x101015be0
1532926819000: board.processor.cores.core.mmu.itb: lookup(vpn=0x1062c, asid=0): hit ppn 0x101011
1532926819000: board.processor.cores.core.mmu.itb: translate(vpn=0x1062c, asid=0): 0x10101162c
1532926821000: board.processor.cores.core.mmu.dtb: lookup(vpn=0x3fffa28be8, asid=0): hit ppn 0x101015
1532926821000: board.processor.cores.core.mmu.dtb: translate(vpn=0x3fffa28be8, asid=0): 0x101015be8
1532926823000: board.processor.cores.core.mmu.itb: lookup(vpn=0x1062c, asid=0): hit ppn 0x101011
1532926823000: board.processor.cores.core.mmu.itb: translate(vpn=0x1062c, asid=0): 0x10101162c
1532926825000: board.processor.cores.core.mmu.itb: lookup(vpn=0x10630, asid=0): hit ppn 0x101011
1532926825000: board.processor.cores.core.mmu.itb: translate(vpn=0x10630, asid=0): 0x101011630
1532926827000: board.processor.cores.core.mmu.itb: lookup(vpn=0x10b38, asid=0): hit ppn 0x101011
1532926827000: board.processor.cores.core.mmu.itb: translate(vpn=0x10b38, asid=0): 0x101011b38
1532926885000: board.processor.cores.core.mmu.itb: lookup(vpn=0x10b38, asid=0): hit ppn 0x101011
1532926885000: board.processor.cores.core.mmu.itb: translate(vpn=0x10b38, asid=0): 0x101011b38
1532926887000: board.processor.cores.core.mmu.itb: lookup(vpn=0x10b40, asid=0): hit ppn 0x101011
1532926887000: board.processor.cores.core.mmu.itb: translate(vpn=0x10b40, asid=0): 0x101011b40
1532926945000: board.processor.cores.core.mmu.dtb: lookup(vpn=0x3fffa28bf8, asid=0): hit ppn 0x101015
1532926945000: board.processor.cores.core.mmu.dtb: translate(vpn=0x3fffa28bf8, asid=0): 0x101015bf8
1532926947000: board.processor.cores.core.mmu.itb: lookup(vpn=0x10b44, asid=0): hit ppn 0x101011
1532926947000: board.processor.cores.core.mmu.itb: translate(vpn=0x10b44, asid=0): 0x101011b44
1532926949000: board.processor.cores.core.mmu.dtb: lookup(vpn=0x3fffa28c00, asid=0): hit ppn 0x101015
1532926949000: board.processor.cores.core.mmu.dtb: translate(vpn=0x3fffa28c00, asid=0): 0x101015c00
1532926951000: board.processor.cores.core.mmu.itb: lookup(vpn=0x10b44, asid=0): hit ppn 0x101011
1532926951000: board.processor.cores.core.mmu.itb: translate(vpn=0x10b44, asid=0): 0x101011b44
1532926953000: board.processor.cores.core.mmu.dtb: lookup(vpn=0x3fffa28c08, asid=0): hit ppn 0x101015
1532926953000: board.processor.cores.core.mmu.dtb: translate(vpn=0x3fffa28c08, asid=0): 0x101015c08
1532926955000: board.processor.cores.core.mmu.itb: lookup(vpn=0x10b48, asid=0): hit ppn 0x101011
1532926955000: board.processor.cores.core.mmu.itb: translate(vpn=0x10b48, asid=0): 0x101011b48
1532926957000: board.processor.cores.core.mmu.dtb: lookup(vpn=0x3fffa28c10, asid=0): hit ppn 0x101015
1532926957000: board.processor.cores.core.mmu.dtb: translate(vpn=0x3fffa28c10, asid=0): 0x101015c10
1532926959000: board.processor.cores.core.mmu.itb: lookup(vpn=0x10b4c, asid=0): hit ppn 0x101011
1532926959000: board.processor.cores.core.mmu.itb: translate(vpn=0x10b4c, asid=0): 0x101011b4c
1532926961000: board.processor.cores.core.mmu.dtb: lookup(vpn=0x3fffa28c18, asid=0): hit ppn 0x101015
1532926961000: board.processor.cores.core.mmu.dtb: translate(vpn=0x3fffa28c18, asid=0): 0x101015c18
1532926963000: board.processor.cores.core.mmu.itb: lookup(vpn=0x10b50, asid=0): hit ppn 0x101011
1532926963000: board.processor.cores.core.mmu.itb: translate(vpn=0x10b50, asid=0): 0x101011b50
1532926965000: board.processor.cores.core.mmu.dtb: lookup(vpn=0x3fffa28c20, asid=0): hit ppn 0x101015
1532926965000: board.processor.cores.core.mmu.dtb: translate(vpn=0x3fffa28c20, asid=0): 0x101015c20
1532926967000: board.processor.cores.core.mmu.itb: lookup(vpn=0x10b54, asid=0): hit ppn 0x101011
1532926967000: board.processor.cores.core.mmu.itb: translate(vpn=0x10b54, asid=0): 0x101011b54
1532926969000: board.processor.cores.core.mmu.dtb: lookup(vpn=0x3fffa28c28, asid=0): hit ppn 0x101015
1532926969000: board.processor.cores.core.mmu.dtb: translate(vpn=0x3fffa28c28, asid=0): 0x101015c28
1532926971000: board.processor.cores.core.mmu.itb: lookup(vpn=0x10b58, asid=0): hit ppn 0x101011
1532926971000: board.processor.cores.core.mmu.itb: translate(vpn=0x10b58, asid=0): 0x101011b58
1532926973000: board.processor.cores.core.mmu.dtb: lookup(vpn=0x3fffa28c30, asid=0): hit ppn 0x101015
1532926973000: board.processor.cores.core.mmu.dtb: translate(vpn=0x3fffa28c30, asid=0): 0x101015c30
1532926975000: board.processor.cores.core.mmu.itb: lookup(vpn=0x10b5c, asid=0): hit ppn 0x101011
1532926975000: board.processor.cores.core.mmu.itb: translate(vpn=0x10b5c, asid=0): 0x101011b5c
1532926977000: board.processor.cores.core.mmu.dtb: lookup(vpn=0x3fffa28c38, asid=0): hit ppn 0x101015
1532926977000: board.processor.cores.core.mmu.dtb: translate(vpn=0x3fffa28c38, asid=0): 0x101015c38
1532926979000: board.processor.cores.core.mmu.itb: lookup(vpn=0x10b60, asid=0): hit ppn 0x101011
1532926979000: board.processor.cores.core.mmu.itb: translate(vpn=0x10b60, asid=0): 0x101011b60
1532926981000: board.processor.cores.core.mmu.dtb: lookup(vpn=0x3fffa28c40, asid=0): hit ppn 0x101015
1532926981000: board.processor.cores.core.mmu.dtb: translate(vpn=0x3fffa28c40, asid=0): 0x101015c40
1532926983000: board.processor.cores.core.mmu.itb: lookup(vpn=0x10b64, asid=0): hit ppn 0x101011
1532926983000: board.processor.cores.core.mmu.itb: translate(vpn=0x10b64, asid=0): 0x101011b64
1532926985000: board.processor.cores.core.mmu.dtb: lookup(vpn=0x3fffa28c48, asid=0): hit ppn 0x101015
1532926985000: board.processor.cores.core.mmu.dtb: translate(vpn=0x3fffa28c48, asid=0): 0x101015c48
1532926987000: board.processor.cores.core.mmu.itb: lookup(vpn=0x10b68, asid=0): hit ppn 0x101011
1532926987000: board.processor.cores.core.mmu.itb: translate(vpn=0x10b68, asid=0): 0x101011b68
1532926989000: board.processor.cores.core.mmu.dtb: lookup(vpn=0x3fffa28c50, asid=0): hit ppn 0x101015
1532926989000: board.processor.cores.core.mmu.dtb: translate(vpn=0x3fffa28c50, asid=0): 0x101015c50
1532926991000: board.processor.cores.core.mmu.itb: lookup(vpn=0x10b6c, asid=0): hit ppn 0x101011
1532926991000: board.processor.cores.core.mmu.itb: translate(vpn=0x10b6c, asid=0): 0x101011b6c
1532926993000: board.processor.cores.core.mmu.dtb: lookup(vpn=0x3fffa28c58, asid=0): hit ppn 0x101015
1532926993000: board.processor.cores.core.mmu.dtb: translate(vpn=0x3fffa28c58, asid=0): 0x101015c58
1532926995000: board.processor.cores.core.mmu.itb: lookup(vpn=0x10b70, asid=0): hit ppn 0x101011
1532926995000: board.processor.cores.core.mmu.itb: translate(vpn=0x10b70, asid=0): 0x101011b70
1532926997000: board.processor.cores.core.mmu.dtb: lookup(vpn=0x3fffa28c60, asid=0): hit ppn 0x101015
1532926997000: board.processor.cores.core.mmu.dtb: translate(vpn=0x3fffa28c60, asid=0): 0x101015c60
1532926999000: board.processor.cores.core.mmu.itb: lookup(vpn=0x10b74, asid=0): hit ppn 0x101011
1532926999000: board.processor.cores.core.mmu.itb: translate(vpn=0x10b74, asid=0): 0x101011b74
1532927001000: board.processor.cores.core.mmu.dtb: lookup(vpn=0x3fffa28c68, asid=0): hit ppn 0x101015
1532927001000: board.processor.cores.core.mmu.dtb: translate(vpn=0x3fffa28c68, asid=0): 0x101015c68
1532927003000: board.processor.cores.core.mmu.itb: lookup(vpn=0x10b74, asid=0): hit ppn 0x101011
1532927003000: board.processor.cores.core.mmu.itb: translate(vpn=0x10b74, asid=0): 0x101011b74
1532927005000: board.processor.cores.core.mmu.dtb: lookup(vpn=0x3fffa28c70, asid=0): hit ppn 0x101015
1532927005000: board.processor.cores.core.mmu.dtb: translate(vpn=0x3fffa28c70, asid=0): 0x101015c70
1532927007000: board.processor.cores.core.mmu.itb: lookup(vpn=0x10b78, asid=0): hit ppn 0x101011
1532927007000: board.processor.cores.core.mmu.itb: translate(vpn=0x10b78, asid=0): 0x101011b78
1532927009000: board.processor.cores.core.mmu.dtb: lookup(vpn=0x3fffa28c78, asid=0): hit ppn 0x101015
1532927009000: board.processor.cores.core.mmu.dtb: translate(vpn=0x3fffa28c78, asid=0): 0x101015c78
1532927011000: board.processor.cores.core.mmu.itb: lookup(vpn=0x10b7c, asid=0): hit ppn 0x101011
1532927011000: board.processor.cores.core.mmu.itb: translate(vpn=0x10b7c, asid=0): 0x101011b7c
1532927013000: board.processor.cores.core.mmu.dtb: lookup(vpn=0x3fffa28c80, asid=0): hit ppn 0x101015
1532927013000: board.processor.cores.core.mmu.dtb: translate(vpn=0x3fffa28c80, asid=0): 0x101015c80
1532927015000: board.processor.cores.core.mmu.itb: lookup(vpn=0x10b80, asid=0): hit ppn 0x101011
1532927015000: board.processor.cores.core.mmu.itb: translate(vpn=0x10b80, asid=0): 0x101011b80
1532927073000: board.processor.cores.core.mmu.dtb: lookup(vpn=0x3fffa28c88, asid=0): hit ppn 0x101015
1532927073000: board.processor.cores.core.mmu.dtb: translate(vpn=0x3fffa28c88, asid=0): 0x101015c88
1532927075000: board.processor.cores.core.mmu.itb: lookup(vpn=0x10b84, asid=0): hit ppn 0x101011
1532927075000: board.processor.cores.core.mmu.itb: translate(vpn=0x10b84, asid=0): 0x101011b84
1532927077000: board.processor.cores.core.mmu.dtb: lookup(vpn=0x3fffa28c90, asid=0): hit ppn 0x101015
1532927077000: board.processor.cores.core.mmu.dtb: translate(vpn=0x3fffa28c90, asid=0): 0x101015c90
1532927079000: board.processor.cores.core.mmu.itb: lookup(vpn=0x10b88, asid=0): hit ppn 0x101011
1532927079000: board.processor.cores.core.mmu.itb: translate(vpn=0x10b88, asid=0): 0x101011b88
1532927081000: board.processor.cores.core.mmu.dtb: lookup(vpn=0x3fffa28c98, asid=0): hit ppn 0x101015
1532927081000: board.processor.cores.core.mmu.dtb: translate(vpn=0x3fffa28c98, asid=0): 0x101015c98
1532927083000: board.processor.cores.core.mmu.itb: lookup(vpn=0x10b8c, asid=0): hit ppn 0x101011
1532927083000: board.processor.cores.core.mmu.itb: translate(vpn=0x10b8c, asid=0): 0x101011b8c
1532927085000: board.processor.cores.core.mmu.dtb: lookup(vpn=0x3fffa28ca0, asid=0): hit ppn 0x101015
1532927085000: board.processor.cores.core.mmu.dtb: translate(vpn=0x3fffa28ca0, asid=0): 0x101015ca0
1532927087000: board.processor.cores.core.mmu.itb: lookup(vpn=0x10b90, asid=0): hit ppn 0x101011
1532927087000: board.processor.cores.core.mmu.itb: translate(vpn=0x10b90, asid=0): 0x101011b90
1532927089000: board.processor.cores.core.mmu.dtb: lookup(vpn=0x3fffa28ca8, asid=0): hit ppn 0x101015
1532927089000: board.processor.cores.core.mmu.dtb: translate(vpn=0x3fffa28ca8, asid=0): 0x101015ca8
1532927091000: board.processor.cores.core.mmu.itb: lookup(vpn=0x10b94, asid=0): hit ppn 0x101011
1532927091000: board.processor.cores.core.mmu.itb: translate(vpn=0x10b94, asid=0): 0x101011b94
1532927093000: board.processor.cores.core.mmu.dtb: lookup(vpn=0x3fffa28cb0, asid=0): hit ppn 0x101015
1532927093000: board.processor.cores.core.mmu.dtb: translate(vpn=0x3fffa28cb0, asid=0): 0x101015cb0
1532927095000: board.processor.cores.core.mmu.itb: lookup(vpn=0x10b98, asid=0): hit ppn 0x101011
1532927095000: board.processor.cores.core.mmu.itb: translate(vpn=0x10b98, asid=0): 0x101011b98
1532927097000: board.processor.cores.core.mmu.dtb: lookup(vpn=0x3fffa28cb8, asid=0): hit ppn 0x101015
1532927097000: board.processor.cores.core.mmu.dtb: translate(vpn=0x3fffa28cb8, asid=0): 0x101015cb8
1532927099000: board.processor.cores.core.mmu.itb: lookup(vpn=0x10b9c, asid=0): hit ppn 0x101011
1532927099000: board.processor.cores.core.mmu.itb: translate(vpn=0x10b9c, asid=0): 0x101011b9c
1532927101000: board.processor.cores.core.mmu.dtb: lookup(vpn=0x3fffa28cc0, asid=0): hit ppn 0x101015
1532927101000: board.processor.cores.core.mmu.dtb: translate(vpn=0x3fffa28cc0, asid=0): 0x101015cc0
1532927103000: board.processor.cores.core.mmu.itb: lookup(vpn=0x10ba0, asid=0): hit ppn 0x101011
1532927103000: board.processor.cores.core.mmu.itb: translate(vpn=0x10ba0, asid=0): 0x101011ba0
1532927105000: board.processor.cores.core.mmu.itb: lookup(vpn=0x10ba4, asid=0): hit ppn 0x101011
1532927105000: board.processor.cores.core.mmu.itb: translate(vpn=0x10ba4, asid=0): 0x101011ba4
1532927107000: board.processor.cores.core.mmu.itb: lookup(vpn=0x10ba4, asid=0): hit ppn 0x101011
1532927107000: board.processor.cores.core.mmu.itb: translate(vpn=0x10ba4, asid=0): 0x101011ba4
1532927109000: board.processor.cores.core.mmu.dtb: lookup(vpn=0x3fffa28bc0, asid=0): hit ppn 0x101015
1532927109000: board.processor.cores.core.mmu.dtb: translate(vpn=0x3fffa28bc0, asid=0): 0x101015bc0
1532927111000: board.processor.cores.core.mmu.itb: lookup(vpn=0x10ba8, asid=0): hit ppn 0x101011
1532927111000: board.processor.cores.core.mmu.itb: translate(vpn=0x10ba8, asid=0): 0x101011ba8
1532927113000: board.processor.cores.core.mmu.dtb: lookup(vpn=0x3fffa28bc8, asid=0): hit ppn 0x101015
1532927113000: board.processor.cores.core.mmu.dtb: translate(vpn=0x3fffa28bc8, asid=0): 0x101015bc8
1532927115000: board.processor.cores.core.mmu.itb: lookup(vpn=0x10ba8, asid=0): hit ppn 0x101011
1532927115000: board.processor.cores.core.mmu.itb: translate(vpn=0x10ba8, asid=0): 0x101011ba8
1532927117000: board.processor.cores.core.mmu.itb: lookup(vpn=0x10bac, asid=0): hit ppn 0x101011
1532927117000: board.processor.cores.core.mmu.itb: translate(vpn=0x10bac, asid=0): 0x101011bac
1532927119000: board.processor.cores.core.mmu.itb: lookup(vpn=0x10bac, asid=0): hit ppn 0x101011
1532927119000: board.processor.cores.core.mmu.itb: translate(vpn=0x10bac, asid=0): 0x101011bac
1532927121000: board.processor.cores.core.mmu.dtb: lookup(vpn=0x3fffa28bc8, asid=0): hit ppn 0x101015
1532927121000: board.processor.cores.core.mmu.dtb: translate(vpn=0x3fffa28bc8, asid=0): 0x101015bc8
1532927123000: board.processor.cores.core.mmu.itb: lookup(vpn=0x10bb0, asid=0): hit ppn 0x101011
1532927123000: board.processor.cores.core.mmu.itb: translate(vpn=0x10bb0, asid=0): 0x101011bb0
1532927125000: board.processor.cores.core.mmu.dtb: lookup(vpn=0x3fffa28cc8, asid=0): hit ppn 0x101015
1532927125000: board.processor.cores.core.mmu.dtb: translate(vpn=0x3fffa28cc8, asid=0): 0x101015cc8
1532927127000: board.processor.cores.core.mmu.itb: lookup(vpn=0x10bb4, asid=0): hit ppn 0x101011
1532927127000: board.processor.cores.core.mmu.itb: translate(vpn=0x10bb4, asid=0): 0x101011bb4
1532927129000: board.processor.cores.core.mmu.dtb: lookup(vpn=0x3fffa28bc0, asid=0): hit ppn 0x101015
1532927129000: board.processor.cores.core.mmu.dtb: translate(vpn=0x3fffa28bc0, asid=0): 0x101015bc0
1532927131000: board.processor.cores.core.mmu.itb: lookup(vpn=0x10bb4, asid=0): hit ppn 0x101011
1532927131000: board.processor.cores.core.mmu.itb: translate(vpn=0x10bb4, asid=0): 0x101011bb4
1532927133000: board.processor.cores.core.mmu.itb: lookup(vpn=0x10bb8, asid=0): hit ppn 0x101011
1532927133000: board.processor.cores.core.mmu.itb: translate(vpn=0x10bb8, asid=0): 0x101011bb8
1532927135000: board.processor.cores.core.mmu.itb: lookup(vpn=0x10bb8, asid=0): hit ppn 0x101011
1532927135000: board.processor.cores.core.mmu.itb: translate(vpn=0x10bb8, asid=0): 0x101011bb8
1532927137000: board.processor.cores.core.mmu.itb: lookup(vpn=0x10630, asid=0): hit ppn 0x101011
1532927137000: board.processor.cores.core.mmu.itb: translate(vpn=0x10630, asid=0): 0x101011630
1532927139000: board.processor.cores.core.mmu.itb: lookup(vpn=0x10634, asid=0): hit ppn 0x101011
1532927139000: board.processor.cores.core.mmu.itb: translate(vpn=0x10634, asid=0): 0x101011634
1532927141000: board.processor.cores.core.mmu.dtb: lookup(vpn=0x80100, asid=0): hit ppn 0x101087
1532927141000: board.processor.cores.core.mmu.dtb: translate(vpn=0x80100, asid=0): 0x101087100
1532927213000: board.processor.cores.core.mmu.itb: lookup(vpn=0x10638, asid=0): hit ppn 0x101011
1532927213000: board.processor.cores.core.mmu.itb: translate(vpn=0x10638, asid=0): 0x101011638
1532927215000: board.processor.cores.core.mmu.dtb: lookup(vpn=0x800f8, asid=0): hit ppn 0x101087
1532927215000: board.processor.cores.core.mmu.dtb: translate(vpn=0x800f8, asid=0): 0x1010870f8
1532927273000: board.processor.cores.core.mmu.itb: lookup(vpn=0x1063c, asid=0): hit ppn 0x101011
1532927273000: board.processor.cores.core.mmu.itb: translate(vpn=0x1063c, asid=0): 0x10101163c
1532927275000: board.processor.cores.core.mmu.dtb: lookup(vpn=0x3fffa28be8, asid=0): hit ppn 0x101015
1532927275000: board.processor.cores.core.mmu.dtb: translate(vpn=0x3fffa28be8, asid=0): 0x101015be8
1532927277000: board.processor.cores.core.mmu.itb: lookup(vpn=0x1063c, asid=0): hit ppn 0x101011
1532927277000: board.processor.cores.core.mmu.itb: translate(vpn=0x1063c, asid=0): 0x10101163c
1532927279000: board.processor.cores.core.mmu.dtb: lookup(vpn=0x3fffa28be0, asid=0): hit ppn 0x101015
1532927279000: board.processor.cores.core.mmu.dtb: translate(vpn=0x3fffa28be0, asid=0): 0x101015be0
1532927281000: board.processor.cores.core.mmu.itb: lookup(vpn=0x10640, asid=0): hit ppn 0x101011
1532927281000: board.processor.cores.core.mmu.itb: translate(vpn=0x10640, asid=0): 0x101011640
1532927339000: board.processor.cores.core.mmu.dtb: lookup(vpn=0x3fffa28bd8, asid=0): hit ppn 0x101015
1532927339000: board.processor.cores.core.mmu.dtb: translate(vpn=0x3fffa28bd8, asid=0): 0x101015bd8
1532927341000: board.processor.cores.core.mmu.itb: lookup(vpn=0x10640, asid=0): hit ppn 0x101011
1532927341000: board.processor.cores.core.mmu.itb: translate(vpn=0x10640, asid=0): 0x101011640
1532927343000: board.processor.cores.core.mmu.dtb: lookup(vpn=0x3fffa28cd8, asid=0): hit ppn 0x101015
1532927343000: board.processor.cores.core.mmu.dtb: translate(vpn=0x3fffa28cd8, asid=0): 0x101015cd8
1532927345000: board.processor.cores.core.mmu.itb: lookup(vpn=0x10644, asid=0): hit ppn 0x101011
1532927345000: board.processor.cores.core.mmu.itb: translate(vpn=0x10644, asid=0): 0x101011644
1532927347000: board.processor.cores.core.mmu.dtb: lookup(vpn=0x3fffa28cd0, asid=0): hit ppn 0x101015
1532927347000: board.processor.cores.core.mmu.dtb: translate(vpn=0x3fffa28cd0, asid=0): 0x101015cd0
1532927349000: board.processor.cores.core.mmu.itb: lookup(vpn=0x10644, asid=0): hit ppn 0x101011
1532927349000: board.processor.cores.core.mmu.itb: translate(vpn=0x10644, asid=0): 0x101011644
1532927351000: board.processor.cores.core.mmu.itb: lookup(vpn=0x10648, asid=0): hit ppn 0x101011
1532927351000: board.processor.cores.core.mmu.itb: translate(vpn=0x10648, asid=0): 0x101011648
1532927353000: board.processor.cores.core.mmu.dtb: lookup(vpn=0x80100, asid=0): hit ppn 0x101087
1532927353000: board.processor.cores.core.mmu.dtb: translate(vpn=0x80100, asid=0): 0x101087100
1532927355000: board.processor.cores.core.mmu.itb: lookup(vpn=0x1064c, asid=0): hit ppn 0x101011
1532927355000: board.processor.cores.core.mmu.itb: translate(vpn=0x1064c, asid=0): 0x10101164c
1532927357000: board.processor.cores.core.mmu.itb: lookup(vpn=0x10650, asid=0): hit ppn 0x101011
1532927357000: board.processor.cores.core.mmu.itb: translate(vpn=0x10650, asid=0): 0x101011650
1532927359000: board.processor.cores.core.mmu.dtb: lookup(vpn=0x7f5a8, asid=0): hit ppn 0x101034
1532927359000: board.processor.cores.core.mmu.dtb: translate(vpn=0x7f5a8, asid=0): 0x1010345a8
1532927361000: board.processor.cores.core.mmu.itb: lookup(vpn=0x10654, asid=0): hit ppn 0x101011
1532927361000: board.processor.cores.core.mmu.itb: translate(vpn=0x10654, asid=0): 0x101011654
1532927363000: board.processor.cores.core.mmu.itb: lookup(vpn=0x10440, asid=0): hit ppn 0x101011
1532927363000: board.processor.cores.core.mmu.itb: translate(vpn=0x10440, asid=0): 0x101011440
1532927365000: board.processor.cores.core.mmu.itb: lookup(vpn=0x10500, asid=0): hit ppn 0x101011
1532927365000: board.processor.cores.core.mmu.itb: translate(vpn=0x10500, asid=0): 0x101011500
1532927423000: board.processor.cores.core.mmu.itb: lookup(vpn=0x10500, asid=0): hit ppn 0x101011
1532927423000: board.processor.cores.core.mmu.itb: translate(vpn=0x10500, asid=0): 0x101011500
1532927425000: board.processor.cores.core.mmu.dtb: lookup(vpn=0x3fffa28bc8, asid=0): hit ppn 0x101015
1532927425000: board.processor.cores.core.mmu.dtb: translate(vpn=0x3fffa28bc8, asid=0): 0x101015bc8
1532927427000: board.processor.cores.core.mmu.itb: lookup(vpn=0x10504, asid=0): hit ppn 0x101011
1532927427000: board.processor.cores.core.mmu.itb: translate(vpn=0x10504, asid=0): 0x101011504
1532927429000: board.processor.cores.core.mmu.dtb: lookup(vpn=0x3fffa28bc0, asid=0): hit ppn 0x101015
1532927429000: board.processor.cores.core.mmu.dtb: translate(vpn=0x3fffa28bc0, asid=0): 0x101015bc0
1532927431000: board.processor.cores.core.mmu.itb: lookup(vpn=0x10504, asid=0): hit ppn 0x101011
1532927431000: board.processor.cores.core.mmu.itb: translate(vpn=0x10504, asid=0): 0x101011504
1532927433000: board.processor.cores.core.mmu.itb: lookup(vpn=0x10508, asid=0): hit ppn 0x101011
1532927433000: board.processor.cores.core.mmu.itb: translate(vpn=0x10508, asid=0): 0x101011508
1532927435000: board.processor.cores.core.mmu.itb: lookup(vpn=0x10508, asid=0): hit ppn 0x101011
1532927435000: board.processor.cores.core.mmu.itb: translate(vpn=0x10508, asid=0): 0x101011508
1532927437000: board.processor.cores.core.mmu.itb: lookup(vpn=0x1050c, asid=0): hit ppn 0x101011
1532927437000: board.processor.cores.core.mmu.itb: translate(vpn=0x1050c, asid=0): 0x10101150c
1532927439000: board.processor.cores.core.mmu.itb: lookup(vpn=0x147d8, asid=0): hit ppn 0x10102e
1532927439000: board.processor.cores.core.mmu.itb: translate(vpn=0x147d8, asid=0): 0x10102e7d8
1532927441000: board.processor.cores.core.mmu.itb: lookup(vpn=0x147d8, asid=0): hit ppn 0x10102e
1532927441000: board.processor.cores.core.mmu.itb: translate(vpn=0x147d8, asid=0): 0x10102e7d8
1532927443000: board.processor.cores.core.mmu.dtb: lookup(vpn=0x3fffa28b98, asid=0): hit ppn 0x101015
1532927443000: board.processor.cores.core.mmu.dtb: translate(vpn=0x3fffa28b98, asid=0): 0x101015b98
1532927529000: board.processor.cores.core.mmu.itb: lookup(vpn=0x147dc, asid=0): hit ppn 0x10102e
1532927529000: board.processor.cores.core.mmu.itb: translate(vpn=0x147dc, asid=0): 0x10102e7dc
1532927531000: board.processor.cores.core.mmu.dtb: lookup(vpn=0x3fffa28ba8, asid=0): hit ppn 0x101015
1532927531000: board.processor.cores.core.mmu.dtb: translate(vpn=0x3fffa28ba8, asid=0): 0x101015ba8
1532927533000: board.processor.cores.core.mmu.itb: lookup(vpn=0x147dc, asid=0): hit ppn 0x10102e
1532927533000: board.processor.cores.core.mmu.itb: translate(vpn=0x147dc, asid=0): 0x10102e7dc
1532927535000: board.processor.cores.core.mmu.dtb: lookup(vpn=0x3fffa28ba0, asid=0): hit ppn 0x101015
1532927535000: board.processor.cores.core.mmu.dtb: translate(vpn=0x3fffa28ba0, asid=0): 0x101015ba0
1532927537000: board.processor.cores.core.mmu.itb: lookup(vpn=0x147e0, asid=0): hit ppn 0x10102e
1532927537000: board.processor.cores.core.mmu.itb: translate(vpn=0x147e0, asid=0): 0x10102e7e0
1532927539000: board.processor.cores.core.mmu.itb: lookup(vpn=0x147e4, asid=0): hit ppn 0x10102e
1532927539000: board.processor.cores.core.mmu.itb: translate(vpn=0x147e4, asid=0): 0x10102e7e4
1532927541000: board.processor.cores.core.mmu.dtb: lookup(vpn=0x7f565, asid=0): hit ppn 0x101034
1532927541000: board.processor.cores.core.mmu.dtb: translate(vpn=0x7f565, asid=0): 0x101034565
1532927543000: board.processor.cores.core.mmu.itb: lookup(vpn=0x147e8, asid=0): hit ppn 0x10102e
1532927543000: board.processor.cores.core.mmu.itb: translate(vpn=0x147e8, asid=0): 0x10102e7e8
1532927545000: board.processor.cores.core.mmu.itb: lookup(vpn=0x147e8, asid=0): hit ppn 0x10102e
1532927545000: board.processor.cores.core.mmu.itb: translate(vpn=0x147e8, asid=0): 0x10102e7e8
1532927547000: board.processor.cores.core.mmu.itb: lookup(vpn=0x147ec, asid=0): hit ppn 0x10102e
1532927547000: board.processor.cores.core.mmu.itb: translate(vpn=0x147ec, asid=0): 0x10102e7ec
1532927549000: board.processor.cores.core.mmu.itb: lookup(vpn=0x147f0, asid=0): hit ppn 0x10102e
1532927549000: board.processor.cores.core.mmu.itb: translate(vpn=0x147f0, asid=0): 0x10102e7f0
1532927551000: board.processor.cores.core.mmu.dtb: lookup(vpn=0x3fffa28b90, asid=0): hit ppn 0x101015
1532927551000: board.processor.cores.core.mmu.dtb: translate(vpn=0x3fffa28b90, asid=0): 0x101015b90
1532927553000: board.processor.cores.core.mmu.itb: lookup(vpn=0x147f0, asid=0): hit ppn 0x10102e
1532927553000: board.processor.cores.core.mmu.itb: translate(vpn=0x147f0, asid=0): 0x10102e7f0
1532927555000: board.processor.cores.core.mmu.itb: lookup(vpn=0x147f4, asid=0): hit ppn 0x10102e
1532927555000: board.processor.cores.core.mmu.itb: translate(vpn=0x147f4, asid=0): 0x10102e7f4
1532927557000: board.processor.cores.core.mmu.itb: lookup(vpn=0x147f4, asid=0): hit ppn 0x10102e
1532927557000: board.processor.cores.core.mmu.itb: translate(vpn=0x147f4, asid=0): 0x10102e7f4
1532927559000: board.processor.cores.core.mmu.itb: lookup(vpn=0x147f8, asid=0): hit ppn 0x10102e
1532927559000: board.processor.cores.core.mmu.itb: translate(vpn=0x147f8, asid=0): 0x10102e7f8
1532927561000: board.processor.cores.core.mmu.itb: lookup(vpn=0x147f8, asid=0): hit ppn 0x10102e
1532927561000: board.processor.cores.core.mmu.itb: translate(vpn=0x147f8, asid=0): 0x10102e7f8
1532927563000: board.processor.cores.core.mmu.itb: lookup(vpn=0x147fc, asid=0): hit ppn 0x10102e
1532927563000: board.processor.cores.core.mmu.itb: translate(vpn=0x147fc, asid=0): 0x10102e7fc
1532927565000: board.processor.cores.core.mmu.itb: lookup(vpn=0x14804, asid=0): hit ppn 0x10102e
1532927565000: board.processor.cores.core.mmu.itb: translate(vpn=0x14804, asid=0): 0x10102e804
1532927567000: board.processor.cores.core.mmu.itb: lookup(vpn=0x14808, asid=0): hit ppn 0x10102e
1532927567000: board.processor.cores.core.mmu.itb: translate(vpn=0x14808, asid=0): 0x10102e808
1532927569000: board.processor.cores.core.mmu.itb: lookup(vpn=0x14808, asid=0): hit ppn 0x10102e
1532927569000: board.processor.cores.core.mmu.itb: translate(vpn=0x14808, asid=0): 0x10102e808
1532927571000: board.processor.cores.core.mmu.dtb: lookup(vpn=0x80788, asid=0): hit ppn 0x101087
1532927571000: board.processor.cores.core.mmu.dtb: translate(vpn=0x80788, asid=0): 0x101087788
1532927573000: board.processor.cores.core.mmu.itb: lookup(vpn=0x1480c, asid=0): hit ppn 0x10102e
1532927573000: board.processor.cores.core.mmu.itb: translate(vpn=0x1480c, asid=0): 0x10102e80c
1532927575000: board.processor.cores.core.mmu.itb: lookup(vpn=0x1480c, asid=0): hit ppn 0x10102e
1532927575000: board.processor.cores.core.mmu.itb: translate(vpn=0x1480c, asid=0): 0x10102e80c
1532927577000: board.processor.cores.core.mmu.itb: lookup(vpn=0x14810, asid=0): hit ppn 0x10102e
1532927577000: board.processor.cores.core.mmu.itb: translate(vpn=0x14810, asid=0): 0x10102e810
1532927579000: board.processor.cores.core.mmu.itb: lookup(vpn=0x14810, asid=0): hit ppn 0x10102e
1532927579000: board.processor.cores.core.mmu.itb: translate(vpn=0x14810, asid=0): 0x10102e810
1532927581000: board.processor.cores.core.mmu.itb: lookup(vpn=0x14814, asid=0): hit ppn 0x10102e
1532927581000: board.processor.cores.core.mmu.itb: translate(vpn=0x14814, asid=0): 0x10102e814
1532927583000: board.processor.cores.core.mmu.dtb: lookup(vpn=0x79078, asid=0): hit ppn 0x101069
1532927583000: board.processor.cores.core.mmu.dtb: translate(vpn=0x79078, asid=0): 0x101069078
1532927585000: board.processor.cores.core.mmu.itb: lookup(vpn=0x14814, asid=0): hit ppn 0x10102e
1532927585000: board.processor.cores.core.mmu.itb: translate(vpn=0x14814, asid=0): 0x10102e814
1532927587000: board.processor.cores.core.mmu.itb: lookup(vpn=0x14818, asid=0): hit ppn 0x10102e
1532927587000: board.processor.cores.core.mmu.itb: translate(vpn=0x14818, asid=0): 0x10102e818
1532927589000: board.processor.cores.core.mmu.itb: lookup(vpn=0x148e8, asid=0): hit ppn 0x10102e
1532927589000: board.processor.cores.core.mmu.itb: translate(vpn=0x148e8, asid=0): 0x10102e8e8
1532927591000: board.processor.cores.core.mmu.itb: lookup(vpn=0x148ec, asid=0): hit ppn 0x10102e
1532927591000: board.processor.cores.core.mmu.itb: translate(vpn=0x148ec, asid=0): 0x10102e8ec
1532927593000: board.processor.cores.core.mmu.itb: lookup(vpn=0x148ec, asid=0): hit ppn 0x10102e
1532927593000: board.processor.cores.core.mmu.itb: translate(vpn=0x148ec, asid=0): 0x10102e8ec
1532927595000: board.processor.cores.core.mmu.itb: lookup(vpn=0x148f0, asid=0): hit ppn 0x10102e
1532927595000: board.processor.cores.core.mmu.itb: translate(vpn=0x148f0, asid=0): 0x10102e8f0
1532927597000: board.processor.cores.core.mmu.dtb: lookup(vpn=0x80b10, asid=0): hit ppn 0x101087
1532927597000: board.processor.cores.core.mmu.dtb: translate(vpn=0x80b10, asid=0): 0x101087b10
1532927599000: board.processor.cores.core.mmu.itb: lookup(vpn=0x148f4, asid=0): hit ppn 0x10102e
1532927599000: board.processor.cores.core.mmu.itb: translate(vpn=0x148f4, asid=0): 0x10102e8f4
1532927601000: board.processor.cores.core.mmu.itb: lookup(vpn=0x14818, asid=0): hit ppn 0x10102e
1532927601000: board.processor.cores.core.mmu.itb: translate(vpn=0x14818, asid=0): 0x10102e818
1532927603000: board.processor.cores.core.mmu.itb: lookup(vpn=0x1481c, asid=0): hit ppn 0x10102e
1532927603000: board.processor.cores.core.mmu.itb: translate(vpn=0x1481c, asid=0): 0x10102e81c
1532927605000: board.processor.cores.core.mmu.dtb: lookup(vpn=0x80000, asid=0): hit ppn 0x101087
1532927605000: board.processor.cores.core.mmu.dtb: translate(vpn=0x80000, asid=0): 0x101087000
1532927607000: board.processor.cores.core.mmu.itb: lookup(vpn=0x1481c, asid=0): hit ppn 0x10102e
1532927607000: board.processor.cores.core.mmu.itb: translate(vpn=0x1481c, asid=0): 0x10102e81c
1532927609000: board.processor.cores.core.mmu.itb: lookup(vpn=0x14820, asid=0): hit ppn 0x10102e
1532927609000: board.processor.cores.core.mmu.itb: translate(vpn=0x14820, asid=0): 0x10102e820
1532927611000: board.processor.cores.core.mmu.itb: lookup(vpn=0x14924, asid=0): hit ppn 0x10102e
1532927611000: board.processor.cores.core.mmu.itb: translate(vpn=0x14924, asid=0): 0x10102e924
1532927613000: board.processor.cores.core.mmu.itb: lookup(vpn=0x14928, asid=0): hit ppn 0x10102e
1532927613000: board.processor.cores.core.mmu.itb: translate(vpn=0x14928, asid=0): 0x10102e928
1532927615000: board.processor.cores.core.mmu.itb: lookup(vpn=0x1492c, asid=0): hit ppn 0x10102e
1532927615000: board.processor.cores.core.mmu.itb: translate(vpn=0x1492c, asid=0): 0x10102e92c
1532927617000: board.processor.cores.core.mmu.itb: lookup(vpn=0x14930, asid=0): hit ppn 0x10102e
1532927617000: board.processor.cores.core.mmu.itb: translate(vpn=0x14930, asid=0): 0x10102e930
1532927619000: board.processor.cores.core.mmu.itb: lookup(vpn=0x134ec, asid=0): hit ppn 0x10100a
1532927619000: board.processor.cores.core.mmu.itb: translate(vpn=0x134ec, asid=0): 0x10100a4ec
1532927621000: board.processor.cores.core.mmu.itb: lookup(vpn=0x134ec, asid=0): hit ppn 0x10100a
1532927621000: board.processor.cores.core.mmu.itb: translate(vpn=0x134ec, asid=0): 0x10100a4ec
1532927623000: board.processor.cores.core.mmu.dtb: lookup(vpn=0x3fffa28b88, asid=0): hit ppn 0x101015
1532927623000: board.processor.cores.core.mmu.dtb: translate(vpn=0x3fffa28b88, asid=0): 0x101015b88
1532927625000: board.processor.cores.core.mmu.itb: lookup(vpn=0x134f0, asid=0): hit ppn 0x10100a
1532927625000: board.processor.cores.core.mmu.itb: translate(vpn=0x134f0, asid=0): 0x10100a4f0
1532927627000: board.processor.cores.core.mmu.dtb: lookup(vpn=0x3fffa28b30, asid=0): hit ppn 0x101015
1532927627000: board.processor.cores.core.mmu.dtb: translate(vpn=0x3fffa28b30, asid=0): 0x101015b30
1532927685000: board.processor.cores.core.mmu.itb: lookup(vpn=0x134f0, asid=0): hit ppn 0x10100a
1532927685000: board.processor.cores.core.mmu.itb: translate(vpn=0x134f0, asid=0): 0x10100a4f0
1532927687000: board.processor.cores.core.mmu.itb: lookup(vpn=0x134f4, asid=0): hit ppn 0x10100a
1532927687000: board.processor.cores.core.mmu.itb: translate(vpn=0x134f4, asid=0): 0x10100a4f4
1532927689000: board.processor.cores.core.mmu.itb: lookup(vpn=0x134f4, asid=0): hit ppn 0x10100a
1532927689000: board.processor.cores.core.mmu.itb: translate(vpn=0x134f4, asid=0): 0x10100a4f4
1532927691000: board.processor.cores.core.mmu.dtb: lookup(vpn=0x3fffa28b80, asid=0): hit ppn 0x101015
1532927691000: board.processor.cores.core.mmu.dtb: translate(vpn=0x3fffa28b80, asid=0): 0x101015b80
1532927693000: board.processor.cores.core.mmu.itb: lookup(vpn=0x134f8, asid=0): hit ppn 0x10100a
1532927693000: board.processor.cores.core.mmu.itb: translate(vpn=0x134f8, asid=0): 0x10100a4f8
1532927695000: board.processor.cores.core.mmu.dtb: lookup(vpn=0x3fffa28b70, asid=0): hit ppn 0x101015
1532927695000: board.processor.cores.core.mmu.dtb: translate(vpn=0x3fffa28b70, asid=0): 0x101015b70
1532927753000: board.processor.cores.core.mmu.itb: lookup(vpn=0x134f8, asid=0): hit ppn 0x10100a
1532927753000: board.processor.cores.core.mmu.itb: translate(vpn=0x134f8, asid=0): 0x10100a4f8
1532927755000: board.processor.cores.core.mmu.dtb: lookup(vpn=0x3fffa28b68, asid=0): hit ppn 0x101015
1532927755000: board.processor.cores.core.mmu.dtb: translate(vpn=0x3fffa28b68, asid=0): 0x101015b68
1532927757000: board.processor.cores.core.mmu.itb: lookup(vpn=0x134fc, asid=0): hit ppn 0x10100a
1532927757000: board.processor.cores.core.mmu.itb: translate(vpn=0x134fc, asid=0): 0x10100a4fc
1532927759000: board.processor.cores.core.mmu.dtb: lookup(vpn=0x3fffa28b78, asid=0): hit ppn 0x101015
1532927759000: board.processor.cores.core.mmu.dtb: translate(vpn=0x3fffa28b78, asid=0): 0x101015b78
1532927761000: board.processor.cores.core.mmu.itb: lookup(vpn=0x134fc, asid=0): hit ppn 0x10100a
1532927761000: board.processor.cores.core.mmu.itb: translate(vpn=0x134fc, asid=0): 0x10100a4fc
1532927763000: board.processor.cores.core.mmu.dtb: lookup(vpn=0x3fffa28b60, asid=0): hit ppn 0x101015
1532927763000: board.processor.cores.core.mmu.dtb: translate(vpn=0x3fffa28b60, asid=0): 0x101015b60
1532927765000: board.processor.cores.core.mmu.itb: lookup(vpn=0x13500, asid=0): hit ppn 0x10100a
1532927765000: board.processor.cores.core.mmu.itb: translate(vpn=0x13500, asid=0): 0x10100a500
1532927767000: board.processor.cores.core.mmu.itb: lookup(vpn=0x13504, asid=0): hit ppn 0x10100a
1532927767000: board.processor.cores.core.mmu.itb: translate(vpn=0x13504, asid=0): 0x10100a504
1532927769000: board.processor.cores.core.mmu.itb: lookup(vpn=0x13504, asid=0): hit ppn 0x10100a
1532927769000: board.processor.cores.core.mmu.itb: translate(vpn=0x13504, asid=0): 0x10100a504
1532927771000: board.processor.cores.core.mmu.itb: lookup(vpn=0x13508, asid=0): hit ppn 0x10100a
1532927771000: board.processor.cores.core.mmu.itb: translate(vpn=0x13508, asid=0): 0x10100a508
1532927773000: board.processor.cores.core.mmu.itb: lookup(vpn=0x13508, asid=0): hit ppn 0x10100a
1532927773000: board.processor.cores.core.mmu.itb: translate(vpn=0x13508, asid=0): 0x10100a508
1532927775000: board.processor.cores.core.mmu.itb: lookup(vpn=0x1350c, asid=0): hit ppn 0x10100a
1532927775000: board.processor.cores.core.mmu.itb: translate(vpn=0x1350c, asid=0): 0x10100a50c
1532927777000: board.processor.cores.core.mmu.itb: lookup(vpn=0x137c4, asid=0): hit ppn 0x10100a
1532927777000: board.processor.cores.core.mmu.itb: translate(vpn=0x137c4, asid=0): 0x10100a7c4
1532927779000: board.processor.cores.core.mmu.itb: lookup(vpn=0x137c8, asid=0): hit ppn 0x10100a
1532927779000: board.processor.cores.core.mmu.itb: translate(vpn=0x137c8, asid=0): 0x10100a7c8
1532927781000: board.processor.cores.core.mmu.itb: lookup(vpn=0x137c8, asid=0): hit ppn 0x10100a
1532927781000: board.processor.cores.core.mmu.itb: translate(vpn=0x137c8, asid=0): 0x10100a7c8
1532927783000: board.processor.cores.core.mmu.itb: lookup(vpn=0x137cc, asid=0): hit ppn 0x10100a
1532927783000: board.processor.cores.core.mmu.itb: translate(vpn=0x137cc, asid=0): 0x10100a7cc
1532927785000: board.processor.cores.core.mmu.itb: lookup(vpn=0x137cc, asid=0): hit ppn 0x10100a
1532927785000: board.processor.cores.core.mmu.itb: translate(vpn=0x137cc, asid=0): 0x10100a7cc
1532927787000: board.processor.cores.core.mmu.itb: lookup(vpn=0x137d0, asid=0): hit ppn 0x10100a
1532927787000: board.processor.cores.core.mmu.itb: translate(vpn=0x137d0, asid=0): 0x10100a7d0
1532927789000: board.processor.cores.core.mmu.itb: lookup(vpn=0x137d0, asid=0): hit ppn 0x10100a
1532927789000: board.processor.cores.core.mmu.itb: translate(vpn=0x137d0, asid=0): 0x10100a7d0
1532927791000: board.processor.cores.core.mmu.itb: lookup(vpn=0x137d4, asid=0): hit ppn 0x10100a
1532927791000: board.processor.cores.core.mmu.itb: translate(vpn=0x137d4, asid=0): 0x10100a7d4
1532927793000: board.processor.cores.core.mmu.dtb: lookup(vpn=0x7f564, asid=0): hit ppn 0x101034
1532927793000: board.processor.cores.core.mmu.dtb: translate(vpn=0x7f564, asid=0): 0x101034564
1532927795000: board.processor.cores.core.mmu.itb: lookup(vpn=0x137d4, asid=0): hit ppn 0x10100a
1532927795000: board.processor.cores.core.mmu.itb: translate(vpn=0x137d4, asid=0): 0x10100a7d4
1532927797000: board.processor.cores.core.mmu.itb: lookup(vpn=0x137d8, asid=0): hit ppn 0x10100a
1532927797000: board.processor.cores.core.mmu.itb: translate(vpn=0x137d8, asid=0): 0x10100a7d8
1532927799000: board.processor.cores.core.mmu.itb: lookup(vpn=0x138b4, asid=0): hit ppn 0x10100a
1532927799000: board.processor.cores.core.mmu.itb: translate(vpn=0x138b4, asid=0): 0x10100a8b4
1532927983000: board.processor.cores.core.mmu.itb: lookup(vpn=0x138b8, asid=0): hit ppn 0x10100a
1532927983000: board.processor.cores.core.mmu.itb: translate(vpn=0x138b8, asid=0): 0x10100a8b8
1532927985000: board.processor.cores.core.mmu.itb: lookup(vpn=0x138bc, asid=0): hit ppn 0x10100a
1532927985000: board.processor.cores.core.mmu.itb: translate(vpn=0x138bc, asid=0): 0x10100a8bc
1532927987000: board.processor.cores.core.mmu.itb: lookup(vpn=0x138c0, asid=0): hit ppn 0x10100a
1532927987000: board.processor.cores.core.mmu.itb: translate(vpn=0x138c0, asid=0): 0x10100a8c0
1532927989000: board.processor.cores.core.mmu.itb: lookup(vpn=0x138c0, asid=0): hit ppn 0x10100a
1532927989000: board.processor.cores.core.mmu.itb: translate(vpn=0x138c0, asid=0): 0x10100a8c0
1532927991000: board.processor.cores.core.mmu.dtb: lookup(vpn=0x790b8, asid=0): hit ppn 0x101069
1532927991000: board.processor.cores.core.mmu.dtb: translate(vpn=0x790b8, asid=0): 0x1010690b8
1532928063000: board.processor.cores.core.mmu.itb: lookup(vpn=0x138c4, asid=0): hit ppn 0x10100a
1532928063000: board.processor.cores.core.mmu.itb: translate(vpn=0x138c4, asid=0): 0x10100a8c4
1532928065000: board.processor.cores.core.mmu.itb: lookup(vpn=0x138c4, asid=0): hit ppn 0x10100a
1532928065000: board.processor.cores.core.mmu.itb: translate(vpn=0x138c4, asid=0): 0x10100a8c4
1532928067000: board.processor.cores.core.mmu.itb: lookup(vpn=0x138c8, asid=0): hit ppn 0x10100a
1532928067000: board.processor.cores.core.mmu.itb: translate(vpn=0x138c8, asid=0): 0x10100a8c8
1532928069000: board.processor.cores.core.mmu.itb: lookup(vpn=0x138cc, asid=0): hit ppn 0x10100a
1532928069000: board.processor.cores.core.mmu.itb: translate(vpn=0x138cc, asid=0): 0x10100a8cc
1532928071000: board.processor.cores.core.mmu.itb: lookup(vpn=0x138d0, asid=0): hit ppn 0x10100a
1532928071000: board.processor.cores.core.mmu.itb: translate(vpn=0x138d0, asid=0): 0x10100a8d0
1532928073000: board.processor.cores.core.mmu.itb: lookup(vpn=0x138d4, asid=0): hit ppn 0x10100a
1532928073000: board.processor.cores.core.mmu.itb: translate(vpn=0x138d4, asid=0): 0x10100a8d4
1532928075000: board.processor.cores.core.mmu.itb: lookup(vpn=0x138d4, asid=0): hit ppn 0x10100a
1532928075000: board.processor.cores.core.mmu.itb: translate(vpn=0x138d4, asid=0): 0x10100a8d4
1532928077000: board.processor.cores.core.mmu.itb: lookup(vpn=0x138d8, asid=0): hit ppn 0x10100a
1532928077000: board.processor.cores.core.mmu.itb: translate(vpn=0x138d8, asid=0): 0x10100a8d8
1532928079000: board.processor.cores.core.mmu.itb: lookup(vpn=0x138d8, asid=0): hit ppn 0x10100a
1532928079000: board.processor.cores.core.mmu.itb: translate(vpn=0x138d8, asid=0): 0x10100a8d8
1532928081000: board.processor.cores.core.mmu.itb: lookup(vpn=0x137e4, asid=0): hit ppn 0x10100a
1532928081000: board.processor.cores.core.mmu.itb: translate(vpn=0x137e4, asid=0): 0x10100a7e4
1532928083000: board.processor.cores.core.mmu.itb: lookup(vpn=0x137e4, asid=0): hit ppn 0x10100a
1532928083000: board.processor.cores.core.mmu.itb: translate(vpn=0x137e4, asid=0): 0x10100a7e4
1532928085000: board.processor.cores.core.mmu.dtb: lookup(vpn=0x79130, asid=0): hit ppn 0x101069
1532928085000: board.processor.cores.core.mmu.dtb: translate(vpn=0x79130, asid=0): 0x101069130
1532928087000: board.processor.cores.core.mmu.itb: lookup(vpn=0x137e8, asid=0): hit ppn 0x10100a
1532928087000: board.processor.cores.core.mmu.itb: translate(vpn=0x137e8, asid=0): 0x10100a7e8
1532928089000: board.processor.cores.core.mmu.itb: lookup(vpn=0x137ec, asid=0): hit ppn 0x10100a
1532928089000: board.processor.cores.core.mmu.itb: translate(vpn=0x137ec, asid=0): 0x10100a7ec
1532928091000: board.processor.cores.core.mmu.itb: lookup(vpn=0x1398c, asid=0): hit ppn 0x10100a
1532928091000: board.processor.cores.core.mmu.itb: translate(vpn=0x1398c, asid=0): 0x10100a98c
1532928093000: board.processor.cores.core.mmu.dtb: lookup(vpn=0x3fffa28b58, asid=0): hit ppn 0x101015
1532928093000: board.processor.cores.core.mmu.dtb: translate(vpn=0x3fffa28b58, asid=0): 0x101015b58
1532928095000: board.processor.cores.core.mmu.itb: lookup(vpn=0x13990, asid=0): hit ppn 0x10100a
1532928095000: board.processor.cores.core.mmu.itb: translate(vpn=0x13990, asid=0): 0x10100a990
1532928097000: board.processor.cores.core.mmu.dtb: lookup(vpn=0x3fffa28b50, asid=0): hit ppn 0x101015
1532928097000: board.processor.cores.core.mmu.dtb: translate(vpn=0x3fffa28b50, asid=0): 0x101015b50
1532928099000: board.processor.cores.core.mmu.itb: lookup(vpn=0x13990, asid=0): hit ppn 0x10100a
1532928099000: board.processor.cores.core.mmu.itb: translate(vpn=0x13990, asid=0): 0x10100a990
1532928101000: board.processor.cores.core.mmu.dtb: lookup(vpn=0x3fffa28b48, asid=0): hit ppn 0x101015
1532928101000: board.processor.cores.core.mmu.dtb: translate(vpn=0x3fffa28b48, asid=0): 0x101015b48
1532928103000: board.processor.cores.core.mmu.itb: lookup(vpn=0x13994, asid=0): hit ppn 0x10100a
1532928103000: board.processor.cores.core.mmu.itb: translate(vpn=0x13994, asid=0): 0x10100a994
1532928105000: board.processor.cores.core.mmu.dtb: lookup(vpn=0x3fffa28b40, asid=0): hit ppn 0x101015
1532928105000: board.processor.cores.core.mmu.dtb: translate(vpn=0x3fffa28b40, asid=0): 0x101015b40
1532928107000: board.processor.cores.core.mmu.itb: lookup(vpn=0x13994, asid=0): hit ppn 0x10100a
1532928107000: board.processor.cores.core.mmu.itb: translate(vpn=0x13994, asid=0): 0x10100a994
1532928109000: board.processor.cores.core.mmu.dtb: lookup(vpn=0x3fffa28b38, asid=0): hit ppn 0x101015
1532928109000: board.processor.cores.core.mmu.dtb: translate(vpn=0x3fffa28b38, asid=0): 0x101015b38
1532928111000: board.processor.cores.core.mmu.itb: lookup(vpn=0x13998, asid=0): hit ppn 0x10100a
1532928111000: board.processor.cores.core.mmu.itb: translate(vpn=0x13998, asid=0): 0x10100a998
1532928113000: board.processor.cores.core.mmu.itb: lookup(vpn=0x136c8, asid=0): hit ppn 0x10100a
1532928113000: board.processor.cores.core.mmu.itb: translate(vpn=0x136c8, asid=0): 0x10100a6c8
1532928115000: board.processor.cores.core.mmu.itb: lookup(vpn=0x136cc, asid=0): hit ppn 0x10100a
1532928115000: board.processor.cores.core.mmu.itb: translate(vpn=0x136cc, asid=0): 0x10100a6cc
1532928117000: board.processor.cores.core.mmu.itb: lookup(vpn=0x136cc, asid=0): hit ppn 0x10100a
1532928117000: board.processor.cores.core.mmu.itb: translate(vpn=0x136cc, asid=0): 0x10100a6cc
1532928119000: board.processor.cores.core.mmu.dtb: lookup(vpn=0x80788, asid=0): hit ppn 0x101087
1532928119000: board.processor.cores.core.mmu.dtb: translate(vpn=0x80788, asid=0): 0x101087788
1532928121000: board.processor.cores.core.mmu.itb: lookup(vpn=0x136d0, asid=0): hit ppn 0x10100a
1532928121000: board.processor.cores.core.mmu.itb: translate(vpn=0x136d0, asid=0): 0x10100a6d0
1532928123000: board.processor.cores.core.mmu.itb: lookup(vpn=0x136d4, asid=0): hit ppn 0x10100a
1532928123000: board.processor.cores.core.mmu.itb: translate(vpn=0x136d4, asid=0): 0x10100a6d4
1532928125000: board.processor.cores.core.mmu.itb: lookup(vpn=0x136d8, asid=0): hit ppn 0x10100a
1532928125000: board.processor.cores.core.mmu.itb: translate(vpn=0x136d8, asid=0): 0x10100a6d8
1532928127000: board.processor.cores.core.mmu.itb: lookup(vpn=0x136d8, asid=0): hit ppn 0x10100a
1532928127000: board.processor.cores.core.mmu.itb: translate(vpn=0x136d8, asid=0): 0x10100a6d8
1532928129000: board.processor.cores.core.mmu.itb: lookup(vpn=0x136dc, asid=0): hit ppn 0x10100a
1532928129000: board.processor.cores.core.mmu.itb: translate(vpn=0x136dc, asid=0): 0x10100a6dc
1532928131000: board.processor.cores.core.mmu.itb: lookup(vpn=0x136e0, asid=0): hit ppn 0x10100a
1532928131000: board.processor.cores.core.mmu.itb: translate(vpn=0x136e0, asid=0): 0x10100a6e0
1532928133000: board.processor.cores.core.mmu.dtb: lookup(vpn=0x79078, asid=0): hit ppn 0x101069
1532928133000: board.processor.cores.core.mmu.dtb: translate(vpn=0x79078, asid=0): 0x101069078
1532928135000: board.processor.cores.core.mmu.itb: lookup(vpn=0x136e4, asid=0): hit ppn 0x10100a
1532928135000: board.processor.cores.core.mmu.itb: translate(vpn=0x136e4, asid=0): 0x10100a6e4
1532928137000: board.processor.cores.core.mmu.itb: lookup(vpn=0x136e8, asid=0): hit ppn 0x10100a
1532928137000: board.processor.cores.core.mmu.itb: translate(vpn=0x136e8, asid=0): 0x10100a6e8
1532928139000: board.processor.cores.core.mmu.itb: lookup(vpn=0x136ec, asid=0): hit ppn 0x10100a
1532928139000: board.processor.cores.core.mmu.itb: translate(vpn=0x136ec, asid=0): 0x10100a6ec
1532928141000: board.processor.cores.core.mmu.itb: lookup(vpn=0x136f0, asid=0): hit ppn 0x10100a
1532928141000: board.processor.cores.core.mmu.itb: translate(vpn=0x136f0, asid=0): 0x10100a6f0
1532928143000: board.processor.cores.core.mmu.dtb: lookup(vpn=0x79120, asid=0): hit ppn 0x101069
1532928143000: board.processor.cores.core.mmu.dtb: translate(vpn=0x79120, asid=0): 0x101069120
1532928145000: board.processor.cores.core.mmu.itb: lookup(vpn=0x136f4, asid=0): hit ppn 0x10100a
1532928145000: board.processor.cores.core.mmu.itb: translate(vpn=0x136f4, asid=0): 0x10100a6f4
1532928147000: board.processor.cores.core.mmu.itb: lookup(vpn=0x136f8, asid=0): hit ppn 0x10100a
1532928147000: board.processor.cores.core.mmu.itb: translate(vpn=0x136f8, asid=0): 0x10100a6f8
1532928149000: board.processor.cores.core.mmu.itb: lookup(vpn=0x136f8, asid=0): hit ppn 0x10100a
1532928149000: board.processor.cores.core.mmu.itb: translate(vpn=0x136f8, asid=0): 0x10100a6f8
1532928151000: board.processor.cores.core.mmu.itb: lookup(vpn=0x136fc, asid=0): hit ppn 0x10100a
1532928151000: board.processor.cores.core.mmu.itb: translate(vpn=0x136fc, asid=0): 0x10100a6fc
1532928153000: board.processor.cores.core.mmu.itb: lookup(vpn=0x13a9c, asid=0): hit ppn 0x10100a
1532928153000: board.processor.cores.core.mmu.itb: translate(vpn=0x13a9c, asid=0): 0x10100aa9c
1532928155000: board.processor.cores.core.mmu.itb: lookup(vpn=0x13aa0, asid=0): hit ppn 0x10100a
1532928155000: board.processor.cores.core.mmu.itb: translate(vpn=0x13aa0, asid=0): 0x10100aaa0
1532928157000: board.processor.cores.core.mmu.itb: lookup(vpn=0x13aa4, asid=0): hit ppn 0x10100a
1532928157000: board.processor.cores.core.mmu.itb: translate(vpn=0x13aa4, asid=0): 0x10100aaa4
1532928159000: board.processor.cores.core.mmu.dtb: lookup(vpn=0x3fffa28b28, asid=0): hit ppn 0x101015
1532928159000: board.processor.cores.core.mmu.dtb: translate(vpn=0x3fffa28b28, asid=0): 0x101015b28
1532928161000: board.processor.cores.core.mmu.itb: lookup(vpn=0x13aa4, asid=0): hit ppn 0x10100a
1532928161000: board.processor.cores.core.mmu.itb: translate(vpn=0x13aa4, asid=0): 0x10100aaa4
1532928163000: board.processor.cores.core.mmu.itb: lookup(vpn=0x13aa8, asid=0): hit ppn 0x10100a
1532928163000: board.processor.cores.core.mmu.itb: translate(vpn=0x13aa8, asid=0): 0x10100aaa8
1532928165000: board.processor.cores.core.mmu.itb: lookup(vpn=0x13aa8, asid=0): hit ppn 0x10100a
1532928165000: board.processor.cores.core.mmu.itb: translate(vpn=0x13aa8, asid=0): 0x10100aaa8
1532928167000: board.processor.cores.core.mmu.itb: lookup(vpn=0x13aac, asid=0): hit ppn 0x10100a
1532928167000: board.processor.cores.core.mmu.itb: translate(vpn=0x13aac, asid=0): 0x10100aaac
1532928169000: board.processor.cores.core.mmu.itb: lookup(vpn=0x13aac, asid=0): hit ppn 0x10100a
1532928169000: board.processor.cores.core.mmu.itb: translate(vpn=0x13aac, asid=0): 0x10100aaac
1532928171000: board.processor.cores.core.mmu.itb: lookup(vpn=0x13ab0, asid=0): hit ppn 0x10100a
1532928171000: board.processor.cores.core.mmu.itb: translate(vpn=0x13ab0, asid=0): 0x10100aab0
1532928173000: board.processor.cores.core.mmu.itb: lookup(vpn=0x13ab0, asid=0): hit ppn 0x10100a
1532928173000: board.processor.cores.core.mmu.itb: translate(vpn=0x13ab0, asid=0): 0x10100aab0
1532928175000: board.processor.cores.core.mmu.itb: lookup(vpn=0x13ab4, asid=0): hit ppn 0x10100a
1532928175000: board.processor.cores.core.mmu.itb: translate(vpn=0x13ab4, asid=0): 0x10100aab4
1532928177000: board.processor.cores.core.mmu.itb: lookup(vpn=0x13ab4, asid=0): hit ppn 0x10100a
1532928177000: board.processor.cores.core.mmu.itb: translate(vpn=0x13ab4, asid=0): 0x10100aab4
1532928179000: board.processor.cores.core.mmu.itb: lookup(vpn=0x13ab8, asid=0): hit ppn 0x10100a
1532928179000: board.processor.cores.core.mmu.itb: translate(vpn=0x13ab8, asid=0): 0x10100aab8
1532928181000: board.processor.cores.core.mmu.itb: lookup(vpn=0x13ab8, asid=0): hit ppn 0x10100a
1532928181000: board.processor.cores.core.mmu.itb: translate(vpn=0x13ab8, asid=0): 0x10100aab8
1532928183000: board.processor.cores.core.mmu.itb: lookup(vpn=0x13abc, asid=0): hit ppn 0x10100a
1532928183000: board.processor.cores.core.mmu.itb: translate(vpn=0x13abc, asid=0): 0x10100aabc
1532928185000: board.processor.cores.core.mmu.itb: lookup(vpn=0x13abc, asid=0): hit ppn 0x10100a
1532928185000: board.processor.cores.core.mmu.itb: translate(vpn=0x13abc, asid=0): 0x10100aabc
1532928187000: board.processor.cores.core.mmu.itb: lookup(vpn=0x13ac0, asid=0): hit ppn 0x10100a
1532928187000: board.processor.cores.core.mmu.itb: translate(vpn=0x13ac0, asid=0): 0x10100aac0
1532928189000: board.processor.cores.core.mmu.itb: lookup(vpn=0x13ac0, asid=0): hit ppn 0x10100a
1532928189000: board.processor.cores.core.mmu.itb: translate(vpn=0x13ac0, asid=0): 0x10100aac0
1532928191000: board.processor.cores.core.mmu.itb: lookup(vpn=0x13ac4, asid=0): hit ppn 0x10100a
1532928191000: board.processor.cores.core.mmu.itb: translate(vpn=0x13ac4, asid=0): 0x10100aac4
1532928193000: board.processor.cores.core.mmu.itb: lookup(vpn=0x13ac4, asid=0): hit ppn 0x10100a
1532928193000: board.processor.cores.core.mmu.itb: translate(vpn=0x13ac4, asid=0): 0x10100aac4
1532928195000: board.processor.cores.core.mmu.dtb: lookup(vpn=0x79908, asid=0): hit ppn 0x101069
1532928195000: board.processor.cores.core.mmu.dtb: translate(vpn=0x79908, asid=0): 0x101069908
1532928197000: board.processor.cores.core.mmu.itb: lookup(vpn=0x13ac8, asid=0): hit ppn 0x10100a
1532928197000: board.processor.cores.core.mmu.itb: translate(vpn=0x13ac8, asid=0): 0x10100aac8
1532928199000: board.processor.cores.core.mmu.itb: lookup(vpn=0x13ac8, asid=0): hit ppn 0x10100a
1532928199000: board.processor.cores.core.mmu.itb: translate(vpn=0x13ac8, asid=0): 0x10100aac8
1532928201000: board.processor.cores.core.mmu.itb: lookup(vpn=0x13acc, asid=0): hit ppn 0x10100a
1532928201000: board.processor.cores.core.mmu.itb: translate(vpn=0x13acc, asid=0): 0x10100aacc
1532928203000: board.processor.cores.core.mmu.itb: lookup(vpn=0x13acc, asid=0): hit ppn 0x10100a
1532928203000: board.processor.cores.core.mmu.itb: translate(vpn=0x13acc, asid=0): 0x10100aacc
1532928205000: board.processor.cores.core.mmu.itb: lookup(vpn=0x13ad0, asid=0): hit ppn 0x10100a
1532928205000: board.processor.cores.core.mmu.itb: translate(vpn=0x13ad0, asid=0): 0x10100aad0
1532928207000: board.processor.cores.core.mmu.itb: lookup(vpn=0x13ad4, asid=0): hit ppn 0x10100a
1532928207000: board.processor.cores.core.mmu.itb: translate(vpn=0x13ad4, asid=0): 0x10100aad4
1532928209000: board.processor.cores.core.mmu.itb: lookup(vpn=0x13bd0, asid=0): hit ppn 0x10100a
1532928209000: board.processor.cores.core.mmu.itb: translate(vpn=0x13bd0, asid=0): 0x10100abd0
1532928211000: board.processor.cores.core.mmu.itb: lookup(vpn=0x13bd4, asid=0): hit ppn 0x10100a
1532928211000: board.processor.cores.core.mmu.itb: translate(vpn=0x13bd4, asid=0): 0x10100abd4
1532928213000: board.processor.cores.core.mmu.itb: lookup(vpn=0x13bd4, asid=0): hit ppn 0x10100a
1532928213000: board.processor.cores.core.mmu.itb: translate(vpn=0x13bd4, asid=0): 0x10100abd4
1532928215000: board.processor.cores.core.mmu.itb: lookup(vpn=0x13bd8, asid=0): hit ppn 0x10100a
1532928215000: board.processor.cores.core.mmu.itb: translate(vpn=0x13bd8, asid=0): 0x10100abd8
1532928217000: board.processor.cores.core.mmu.itb: lookup(vpn=0x13bd8, asid=0): hit ppn 0x10100a
1532928217000: board.processor.cores.core.mmu.itb: translate(vpn=0x13bd8, asid=0): 0x10100abd8
1532928219000: board.processor.cores.core.mmu.itb: lookup(vpn=0x13bdc, asid=0): hit ppn 0x10100a
1532928219000: board.processor.cores.core.mmu.itb: translate(vpn=0x13bdc, asid=0): 0x10100abdc
1532928221000: board.processor.cores.core.mmu.itb: lookup(vpn=0x13be0, asid=0): hit ppn 0x10100a
1532928221000: board.processor.cores.core.mmu.itb: translate(vpn=0x13be0, asid=0): 0x10100abe0
1532928223000: board.processor.cores.core.mmu.itb: lookup(vpn=0x13be0, asid=0): hit ppn 0x10100a
1532928223000: board.processor.cores.core.mmu.itb: translate(vpn=0x13be0, asid=0): 0x10100abe0
1532928225000: board.processor.cores.core.mmu.itb: lookup(vpn=0x13be4, asid=0): hit ppn 0x10100a
1532928225000: board.processor.cores.core.mmu.itb: translate(vpn=0x13be4, asid=0): 0x10100abe4
1532928227000: board.processor.cores.core.mmu.itb: lookup(vpn=0x13bf0, asid=0): hit ppn 0x10100a
1532928227000: board.processor.cores.core.mmu.itb: translate(vpn=0x13bf0, asid=0): 0x10100abf0
1532928229000: board.processor.cores.core.mmu.itb: lookup(vpn=0x13bf4, asid=0): hit ppn 0x10100a
1532928229000: board.processor.cores.core.mmu.itb: translate(vpn=0x13bf4, asid=0): 0x10100abf4
1532928231000: board.processor.cores.core.mmu.itb: lookup(vpn=0x13bf4, asid=0): hit ppn 0x10100a
1532928231000: board.processor.cores.core.mmu.itb: translate(vpn=0x13bf4, asid=0): 0x10100abf4
1532928233000: board.processor.cores.core.mmu.itb: lookup(vpn=0x13bf8, asid=0): hit ppn 0x10100a
1532928233000: board.processor.cores.core.mmu.itb: translate(vpn=0x13bf8, asid=0): 0x10100abf8
1532928235000: board.processor.cores.core.mmu.itb: lookup(vpn=0x13be4, asid=0): hit ppn 0x10100a
1532928235000: board.processor.cores.core.mmu.itb: translate(vpn=0x13be4, asid=0): 0x10100abe4
1532928237000: board.processor.cores.core.mmu.dtb: lookup(vpn=0x7990c, asid=0): hit ppn 0x101069
1532928237000: board.processor.cores.core.mmu.dtb: translate(vpn=0x7990c, asid=0): 0x10106990c
1532928239000: board.processor.cores.core.mmu.itb: lookup(vpn=0x13be8, asid=0): hit ppn 0x10100a
1532928239000: board.processor.cores.core.mmu.itb: translate(vpn=0x13be8, asid=0): 0x10100abe8
1532928241000: board.processor.cores.core.mmu.itb: lookup(vpn=0x13be8, asid=0): hit ppn 0x10100a
1532928241000: board.processor.cores.core.mmu.itb: translate(vpn=0x13be8, asid=0): 0x10100abe8
1532928243000: board.processor.cores.core.mmu.itb: lookup(vpn=0x13bec, asid=0): hit ppn 0x10100a
1532928243000: board.processor.cores.core.mmu.itb: translate(vpn=0x13bec, asid=0): 0x10100abec
1532928245000: board.processor.cores.core.mmu.itb: lookup(vpn=0x13bec, asid=0): hit ppn 0x10100a
1532928245000: board.processor.cores.core.mmu.itb: translate(vpn=0x13bec, asid=0): 0x10100abec
1532928247000: board.processor.cores.core.mmu.itb: lookup(vpn=0x13bf0, asid=0): hit ppn 0x10100a
1532928247000: board.processor.cores.core.mmu.itb: translate(vpn=0x13bf0, asid=0): 0x10100abf0
1532928249000: board.processor.cores.core.mmu.itb: lookup(vpn=0x13bf0, asid=0): hit ppn 0x10100a
1532928249000: board.processor.cores.core.mmu.itb: translate(vpn=0x13bf0, asid=0): 0x10100abf0
1532928251000: board.processor.cores.core.mmu.itb: lookup(vpn=0x13bf4, asid=0): hit ppn 0x10100a
1532928251000: board.processor.cores.core.mmu.itb: translate(vpn=0x13bf4, asid=0): 0x10100abf4
1532928253000: board.processor.cores.core.mmu.itb: lookup(vpn=0x13bf4, asid=0): hit ppn 0x10100a
1532928253000: board.processor.cores.core.mmu.itb: translate(vpn=0x13bf4, asid=0): 0x10100abf4
1532928255000: board.processor.cores.core.mmu.itb: lookup(vpn=0x13bf8, asid=0): hit ppn 0x10100a
1532928255000: board.processor.cores.core.mmu.itb: translate(vpn=0x13bf8, asid=0): 0x10100abf8
1532928257000: board.processor.cores.core.mmu.itb: lookup(vpn=0x13be4, asid=0): hit ppn 0x10100a
1532928257000: board.processor.cores.core.mmu.itb: translate(vpn=0x13be4, asid=0): 0x10100abe4
1532928259000: board.processor.cores.core.mmu.dtb: lookup(vpn=0x79910, asid=0): hit ppn 0x101069
1532928259000: board.processor.cores.core.mmu.dtb: translate(vpn=0x79910, asid=0): 0x101069910
1532928261000: board.processor.cores.core.mmu.itb: lookup(vpn=0x13be8, asid=0): hit ppn 0x10100a
1532928261000: board.processor.cores.core.mmu.itb: translate(vpn=0x13be8, asid=0): 0x10100abe8
1532928263000: board.processor.cores.core.mmu.itb: lookup(vpn=0x13be8, asid=0): hit ppn 0x10100a
1532928263000: board.processor.cores.core.mmu.itb: translate(vpn=0x13be8, asid=0): 0x10100abe8
1532928265000: board.processor.cores.core.mmu.itb: lookup(vpn=0x13bec, asid=0): hit ppn 0x10100a
1532928265000: board.processor.cores.core.mmu.itb: translate(vpn=0x13bec, asid=0): 0x10100abec
1532928267000: board.processor.cores.core.mmu.itb: lookup(vpn=0x13bec, asid=0): hit ppn 0x10100a
1532928267000: board.processor.cores.core.mmu.itb: translate(vpn=0x13bec, asid=0): 0x10100abec
1532928269000: board.processor.cores.core.mmu.itb: lookup(vpn=0x13bf0, asid=0): hit ppn 0x10100a
1532928269000: board.processor.cores.core.mmu.itb: translate(vpn=0x13bf0, asid=0): 0x10100abf0
1532928271000: board.processor.cores.core.mmu.itb: lookup(vpn=0x13bf0, asid=0): hit ppn 0x10100a
1532928271000: board.processor.cores.core.mmu.itb: translate(vpn=0x13bf0, asid=0): 0x10100abf0
1532928273000: board.processor.cores.core.mmu.itb: lookup(vpn=0x13bf4, asid=0): hit ppn 0x10100a
1532928273000: board.processor.cores.core.mmu.itb: translate(vpn=0x13bf4, asid=0): 0x10100abf4
1532928275000: board.processor.cores.core.mmu.itb: lookup(vpn=0x13bf4, asid=0): hit ppn 0x10100a
1532928275000: board.processor.cores.core.mmu.itb: translate(vpn=0x13bf4, asid=0): 0x10100abf4
1532928277000: board.processor.cores.core.mmu.itb: lookup(vpn=0x13bf8, asid=0): hit ppn 0x10100a
1532928277000: board.processor.cores.core.mmu.itb: translate(vpn=0x13bf8, asid=0): 0x10100abf8
1532928279000: board.processor.cores.core.mmu.itb: lookup(vpn=0x13be4, asid=0): hit ppn 0x10100a
1532928279000: board.processor.cores.core.mmu.itb: translate(vpn=0x13be4, asid=0): 0x10100abe4
1532928281000: board.processor.cores.core.mmu.dtb: lookup(vpn=0x79914, asid=0): hit ppn 0x101069
1532928281000: board.processor.cores.core.mmu.dtb: translate(vpn=0x79914, asid=0): 0x101069914
1532928283000: board.processor.cores.core.mmu.itb: lookup(vpn=0x13be8, asid=0): hit ppn 0x10100a
1532928283000: board.processor.cores.core.mmu.itb: translate(vpn=0x13be8, asid=0): 0x10100abe8
1532928285000: board.processor.cores.core.mmu.itb: lookup(vpn=0x13be8, asid=0): hit ppn 0x10100a
1532928285000: board.processor.cores.core.mmu.itb: translate(vpn=0x13be8, asid=0): 0x10100abe8
1532928287000: board.processor.cores.core.mmu.itb: lookup(vpn=0x13bec, asid=0): hit ppn 0x10100a
1532928287000: board.processor.cores.core.mmu.itb: translate(vpn=0x13bec, asid=0): 0x10100abec
1532928289000: board.processor.cores.core.mmu.itb: lookup(vpn=0x13bec, asid=0): hit ppn 0x10100a
1532928289000: board.processor.cores.core.mmu.itb: translate(vpn=0x13bec, asid=0): 0x10100abec
1532928291000: board.processor.cores.core.mmu.itb: lookup(vpn=0x13bf0, asid=0): hit ppn 0x10100a
1532928291000: board.processor.cores.core.mmu.itb: translate(vpn=0x13bf0, asid=0): 0x10100abf0
1532928293000: board.processor.cores.core.mmu.itb: lookup(vpn=0x13bf0, asid=0): hit ppn 0x10100a
1532928293000: board.processor.cores.core.mmu.itb: translate(vpn=0x13bf0, asid=0): 0x10100abf0
1532928295000: board.processor.cores.core.mmu.itb: lookup(vpn=0x13bf4, asid=0): hit ppn 0x10100a
1532928295000: board.processor.cores.core.mmu.itb: translate(vpn=0x13bf4, asid=0): 0x10100abf4
1532928297000: board.processor.cores.core.mmu.itb: lookup(vpn=0x13bf4, asid=0): hit ppn 0x10100a
1532928297000: board.processor.cores.core.mmu.itb: translate(vpn=0x13bf4, asid=0): 0x10100abf4
1532928299000: board.processor.cores.core.mmu.itb: lookup(vpn=0x13bf8, asid=0): hit ppn 0x10100a
1532928299000: board.processor.cores.core.mmu.itb: translate(vpn=0x13bf8, asid=0): 0x10100abf8
1532928301000: board.processor.cores.core.mmu.itb: lookup(vpn=0x13bf8, asid=0): hit ppn 0x10100a
1532928301000: board.processor.cores.core.mmu.itb: translate(vpn=0x13bf8, asid=0): 0x10100abf8
1532928303000: board.processor.cores.core.mmu.itb: lookup(vpn=0x13bfc, asid=0): hit ppn 0x10100a
1532928303000: board.processor.cores.core.mmu.itb: translate(vpn=0x13bfc, asid=0): 0x10100abfc
1532928305000: board.processor.cores.core.mmu.dtb: lookup(vpn=0x79108, asid=0): hit ppn 0x101069
1532928305000: board.processor.cores.core.mmu.dtb: translate(vpn=0x79108, asid=0): 0x101069108
1532928307000: board.processor.cores.core.mmu.itb: lookup(vpn=0x13bfc, asid=0): hit ppn 0x10100a
1532928307000: board.processor.cores.core.mmu.itb: translate(vpn=0x13bfc, asid=0): 0x10100abfc
1532928309000: board.processor.cores.core.mmu.itb: lookup(vpn=0x13c00, asid=0): hit ppn 0x10100a
1532928309000: board.processor.cores.core.mmu.itb: translate(vpn=0x13c00, asid=0): 0x10100ac00
1532928311000: board.processor.cores.core.mmu.itb: lookup(vpn=0x13c00, asid=0): hit ppn 0x10100a
1532928311000: board.processor.cores.core.mmu.itb: translate(vpn=0x13c00, asid=0): 0x10100ac00
1532928313000: board.processor.cores.core.mmu.dtb: lookup(vpn=0x814b8, asid=0): hit ppn 0x10109d
1532928313000: board.processor.cores.core.mmu.dtb: translate(vpn=0x814b8, asid=0): 0x10109d4b8
1532928315000: board.processor.cores.core.mmu.itb: lookup(vpn=0x13c04, asid=0): hit ppn 0x10100a
1532928315000: board.processor.cores.core.mmu.itb: translate(vpn=0x13c04, asid=0): 0x10100ac04
1532928317000: board.processor.cores.core.mmu.dtb: lookup(vpn=0x79930, asid=0): hit ppn 0x101069
1532928317000: board.processor.cores.core.mmu.dtb: translate(vpn=0x79930, asid=0): 0x101069930
1532928319000: board.processor.cores.core.mmu.itb: lookup(vpn=0x13c08, asid=0): hit ppn 0x10100a
1532928319000: board.processor.cores.core.mmu.itb: translate(vpn=0x13c08, asid=0): 0x10100ac08
1532928321000: board.processor.cores.core.mmu.itb: lookup(vpn=0x13c08, asid=0): hit ppn 0x10100a
1532928321000: board.processor.cores.core.mmu.itb: translate(vpn=0x13c08, asid=0): 0x10100ac08
1532928323000: board.processor.cores.core.mmu.itb: lookup(vpn=0x13c0c, asid=0): hit ppn 0x10100a
1532928323000: board.processor.cores.core.mmu.itb: translate(vpn=0x13c0c, asid=0): 0x10100ac0c
1532928325000: board.processor.cores.core.mmu.itb: lookup(vpn=0x13c0c, asid=0): hit ppn 0x10100a
1532928325000: board.processor.cores.core.mmu.itb: translate(vpn=0x13c0c, asid=0): 0x10100ac0c
1532928327000: board.processor.cores.core.mmu.itb: lookup(vpn=0x13c10, asid=0): hit ppn 0x10100a
1532928327000: board.processor.cores.core.mmu.itb: translate(vpn=0x13c10, asid=0): 0x10100ac10
1532928329000: board.processor.cores.core.mmu.itb: lookup(vpn=0x13c10, asid=0): hit ppn 0x10100a
1532928329000: board.processor.cores.core.mmu.itb: translate(vpn=0x13c10, asid=0): 0x10100ac10
1532928331000: board.processor.cores.core.mmu.itb: lookup(vpn=0x13c14, asid=0): hit ppn 0x10100a
1532928331000: board.processor.cores.core.mmu.itb: translate(vpn=0x13c14, asid=0): 0x10100ac14
1532928333000: board.processor.cores.core.mmu.itb: lookup(vpn=0x140e8, asid=0): hit ppn 0x10102e
1532928333000: board.processor.cores.core.mmu.itb: translate(vpn=0x140e8, asid=0): 0x10102e0e8
1532928335000: board.processor.cores.core.mmu.itb: lookup(vpn=0x140ec, asid=0): hit ppn 0x10102e
1532928335000: board.processor.cores.core.mmu.itb: translate(vpn=0x140ec, asid=0): 0x10102e0ec
1532928337000: board.processor.cores.core.mmu.itb: lookup(vpn=0x140f0, asid=0): hit ppn 0x10102e
1532928337000: board.processor.cores.core.mmu.itb: translate(vpn=0x140f0, asid=0): 0x10102e0f0
1532928339000: board.processor.cores.core.mmu.itb: lookup(vpn=0x140f4, asid=0): hit ppn 0x10102e
1532928339000: board.processor.cores.core.mmu.itb: translate(vpn=0x140f4, asid=0): 0x10102e0f4
1532928341000: board.processor.cores.core.mmu.itb: lookup(vpn=0x140f8, asid=0): hit ppn 0x10102e
1532928341000: board.processor.cores.core.mmu.itb: translate(vpn=0x140f8, asid=0): 0x10102e0f8
1532928343000: board.processor.cores.core.mmu.itb: lookup(vpn=0x140f8, asid=0): hit ppn 0x10102e
1532928343000: board.processor.cores.core.mmu.itb: translate(vpn=0x140f8, asid=0): 0x10102e0f8
1532928345000: board.processor.cores.core.mmu.itb: lookup(vpn=0x140fc, asid=0): hit ppn 0x10102e
1532928345000: board.processor.cores.core.mmu.itb: translate(vpn=0x140fc, asid=0): 0x10102e0fc
1532928347000: board.processor.cores.core.mmu.itb: lookup(vpn=0x140fc, asid=0): hit ppn 0x10102e
1532928347000: board.processor.cores.core.mmu.itb: translate(vpn=0x140fc, asid=0): 0x10102e0fc
1532928349000: board.processor.cores.core.mmu.itb: lookup(vpn=0x14100, asid=0): hit ppn 0x10102e
1532928349000: board.processor.cores.core.mmu.itb: translate(vpn=0x14100, asid=0): 0x10102e100
1532928351000: board.processor.cores.core.mmu.dtb: lookup(vpn=0x79108, asid=0): hit ppn 0x101069
1532928351000: board.processor.cores.core.mmu.dtb: translate(vpn=0x79108, asid=0): 0x101069108
1532928353000: board.processor.cores.core.mmu.itb: lookup(vpn=0x14104, asid=0): hit ppn 0x10102e
1532928353000: board.processor.cores.core.mmu.itb: translate(vpn=0x14104, asid=0): 0x10102e104
1532928355000: board.processor.cores.core.mmu.itb: lookup(vpn=0x14108, asid=0): hit ppn 0x10102e
1532928355000: board.processor.cores.core.mmu.itb: translate(vpn=0x14108, asid=0): 0x10102e108
1532928357000: board.processor.cores.core.mmu.itb: lookup(vpn=0x14108, asid=0): hit ppn 0x10102e
1532928357000: board.processor.cores.core.mmu.itb: translate(vpn=0x14108, asid=0): 0x10102e108
1532928359000: board.processor.cores.core.mmu.dtb: lookup(vpn=0x814b8, asid=0): hit ppn 0x10109d
1532928359000: board.processor.cores.core.mmu.dtb: translate(vpn=0x814b8, asid=0): 0x10109d4b8
1532928361000: board.processor.cores.core.mmu.itb: lookup(vpn=0x1410c, asid=0): hit ppn 0x10102e
1532928361000: board.processor.cores.core.mmu.itb: translate(vpn=0x1410c, asid=0): 0x10102e10c
1532928363000: board.processor.cores.core.mmu.itb: lookup(vpn=0x14110, asid=0): hit ppn 0x10102e
1532928363000: board.processor.cores.core.mmu.itb: translate(vpn=0x14110, asid=0): 0x10102e110
1532928365000: board.processor.cores.core.mmu.itb: lookup(vpn=0x14114, asid=0): hit ppn 0x10102e
1532928365000: board.processor.cores.core.mmu.itb: translate(vpn=0x14114, asid=0): 0x10102e114
1532928367000: board.processor.cores.core.mmu.dtb: lookup(vpn=0x814d8, asid=0): hit ppn 0x10109d
1532928367000: board.processor.cores.core.mmu.dtb: translate(vpn=0x814d8, asid=0): 0x10109d4d8
1532928439000: board.processor.cores.core.mmu.itb: lookup(vpn=0x14114, asid=0): hit ppn 0x10102e
1532928439000: board.processor.cores.core.mmu.itb: translate(vpn=0x14114, asid=0): 0x10102e114
1532928441000: board.processor.cores.core.mmu.itb: lookup(vpn=0x14118, asid=0): hit ppn 0x10102e
1532928441000: board.processor.cores.core.mmu.itb: translate(vpn=0x14118, asid=0): 0x10102e118
1532928443000: board.processor.cores.core.mmu.itb: lookup(vpn=0x14118, asid=0): hit ppn 0x10102e
1532928443000: board.processor.cores.core.mmu.itb: translate(vpn=0x14118, asid=0): 0x10102e118
1532928445000: board.processor.cores.core.mmu.itb: lookup(vpn=0x1411c, asid=0): hit ppn 0x10102e
1532928445000: board.processor.cores.core.mmu.itb: translate(vpn=0x1411c, asid=0): 0x10102e11c
1532928447000: board.processor.cores.core.mmu.itb: lookup(vpn=0x114bc, asid=0): hit ppn 0x2781e8
1532928447000: board.processor.cores.core.mmu.itb: translate(vpn=0x114bc, asid=0): 0x2781e84bc
1532928449000: board.processor.cores.core.mmu.itb: lookup(vpn=0x114c0, asid=0): hit ppn 0x2781e8
1532928449000: board.processor.cores.core.mmu.itb: translate(vpn=0x114c0, asid=0): 0x2781e84c0
1532928451000: board.processor.cores.core.mmu.dtb: lookup(vpn=0x7f560, asid=0): hit ppn 0x101034
1532928451000: board.processor.cores.core.mmu.dtb: translate(vpn=0x7f560, asid=0): 0x101034560
1532928453000: board.processor.cores.core.mmu.itb: lookup(vpn=0x114c4, asid=0): hit ppn 0x2781e8
1532928453000: board.processor.cores.core.mmu.itb: translate(vpn=0x114c4, asid=0): 0x2781e84c4
1532928455000: board.processor.cores.core.mmu.itb: lookup(vpn=0x114c4, asid=0): hit ppn 0x2781e8
1532928455000: board.processor.cores.core.mmu.itb: translate(vpn=0x114c4, asid=0): 0x2781e84c4
1532928457000: board.processor.cores.core.mmu.itb: lookup(vpn=0x1411c, asid=0): hit ppn 0x10102e
1532928457000: board.processor.cores.core.mmu.itb: translate(vpn=0x1411c, asid=0): 0x10102e11c
1532928459000: board.processor.cores.core.mmu.itb: lookup(vpn=0x13f64, asid=0): hit ppn 0x10100a
1532928459000: board.processor.cores.core.mmu.itb: translate(vpn=0x13f64, asid=0): 0x10100af64
1532928461000: board.processor.cores.core.mmu.dtb: lookup(vpn=0x3fffa28b80, asid=0): hit ppn 0x101015
1532928461000: board.processor.cores.core.mmu.dtb: translate(vpn=0x3fffa28b80, asid=0): 0x101015b80
1532928463000: board.processor.cores.core.mmu.itb: lookup(vpn=0x13f68, asid=0): hit ppn 0x10100a
1532928463000: board.processor.cores.core.mmu.itb: translate(vpn=0x13f68, asid=0): 0x10100af68
1532928465000: board.processor.cores.core.mmu.dtb: lookup(vpn=0x3fffa28b78, asid=0): hit ppn 0x101015
1532928465000: board.processor.cores.core.mmu.dtb: translate(vpn=0x3fffa28b78, asid=0): 0x101015b78
1532928467000: board.processor.cores.core.mmu.itb: lookup(vpn=0x13f68, asid=0): hit ppn 0x10100a
1532928467000: board.processor.cores.core.mmu.itb: translate(vpn=0x13f68, asid=0): 0x10100af68
1532928469000: board.processor.cores.core.mmu.dtb: lookup(vpn=0x3fffa28b70, asid=0): hit ppn 0x101015
1532928469000: board.processor.cores.core.mmu.dtb: translate(vpn=0x3fffa28b70, asid=0): 0x101015b70
1532928471000: board.processor.cores.core.mmu.itb: lookup(vpn=0x13f6c, asid=0): hit ppn 0x10100a
1532928471000: board.processor.cores.core.mmu.itb: translate(vpn=0x13f6c, asid=0): 0x10100af6c
1532928473000: board.processor.cores.core.mmu.dtb: lookup(vpn=0x3fffa28b68, asid=0): hit ppn 0x101015
1532928473000: board.processor.cores.core.mmu.dtb: translate(vpn=0x3fffa28b68, asid=0): 0x101015b68
1532928475000: board.processor.cores.core.mmu.itb: lookup(vpn=0x13f6c, asid=0): hit ppn 0x10100a
1532928475000: board.processor.cores.core.mmu.itb: translate(vpn=0x13f6c, asid=0): 0x10100af6c
1532928477000: board.processor.cores.core.mmu.dtb: lookup(vpn=0x3fffa28b60, asid=0): hit ppn 0x101015
1532928477000: board.processor.cores.core.mmu.dtb: translate(vpn=0x3fffa28b60, asid=0): 0x101015b60
1532928479000: board.processor.cores.core.mmu.itb: lookup(vpn=0x13f70, asid=0): hit ppn 0x10100a
1532928479000: board.processor.cores.core.mmu.itb: translate(vpn=0x13f70, asid=0): 0x10100af70
1532928481000: board.processor.cores.core.mmu.dtb: lookup(vpn=0x3fffa28b58, asid=0): hit ppn 0x101015
1532928481000: board.processor.cores.core.mmu.dtb: translate(vpn=0x3fffa28b58, asid=0): 0x101015b58
1532928483000: board.processor.cores.core.mmu.itb: lookup(vpn=0x13f70, asid=0): hit ppn 0x10100a
1532928483000: board.processor.cores.core.mmu.itb: translate(vpn=0x13f70, asid=0): 0x10100af70
1532928485000: board.processor.cores.core.mmu.dtb: lookup(vpn=0x3fffa28b50, asid=0): hit ppn 0x101015
1532928485000: board.processor.cores.core.mmu.dtb: translate(vpn=0x3fffa28b50, asid=0): 0x101015b50
1532928487000: board.processor.cores.core.mmu.itb: lookup(vpn=0x13f74, asid=0): hit ppn 0x10100a
1532928487000: board.processor.cores.core.mmu.itb: translate(vpn=0x13f74, asid=0): 0x10100af74
1532928489000: board.processor.cores.core.mmu.dtb: lookup(vpn=0x3fffa28b48, asid=0): hit ppn 0x101015
1532928489000: board.processor.cores.core.mmu.dtb: translate(vpn=0x3fffa28b48, asid=0): 0x101015b48
1532928491000: board.processor.cores.core.mmu.itb: lookup(vpn=0x13f74, asid=0): hit ppn 0x10100a
1532928491000: board.processor.cores.core.mmu.itb: translate(vpn=0x13f74, asid=0): 0x10100af74
1532928493000: board.processor.cores.core.mmu.dtb: lookup(vpn=0x3fffa28b40, asid=0): hit ppn 0x101015
1532928493000: board.processor.cores.core.mmu.dtb: translate(vpn=0x3fffa28b40, asid=0): 0x101015b40
1532928495000: board.processor.cores.core.mmu.itb: lookup(vpn=0x13f78, asid=0): hit ppn 0x10100a
1532928495000: board.processor.cores.core.mmu.itb: translate(vpn=0x13f78, asid=0): 0x10100af78
1532928497000: board.processor.cores.core.mmu.dtb: lookup(vpn=0x3fffa28b38, asid=0): hit ppn 0x101015
1532928497000: board.processor.cores.core.mmu.dtb: translate(vpn=0x3fffa28b38, asid=0): 0x101015b38
1532928499000: board.processor.cores.core.mmu.itb: lookup(vpn=0x13f78, asid=0): hit ppn 0x10100a
1532928499000: board.processor.cores.core.mmu.itb: translate(vpn=0x13f78, asid=0): 0x10100af78
1532928501000: board.processor.cores.core.mmu.dtb: lookup(vpn=0x3fffa28b28, asid=0): hit ppn 0x101015
1532928501000: board.processor.cores.core.mmu.dtb: translate(vpn=0x3fffa28b28, asid=0): 0x101015b28
1532928503000: board.processor.cores.core.mmu.itb: lookup(vpn=0x13f7c, asid=0): hit ppn 0x10100a
1532928503000: board.processor.cores.core.mmu.itb: translate(vpn=0x13f7c, asid=0): 0x10100af7c
1532928505000: board.processor.cores.core.mmu.itb: lookup(vpn=0x138f8, asid=0): hit ppn 0x10100a
1532928505000: board.processor.cores.core.mmu.itb: translate(vpn=0x138f8, asid=0): 0x10100a8f8
1532928507000: board.processor.cores.core.mmu.dtb: lookup(vpn=0x3fffa28b88, asid=0): hit ppn 0x101015
1532928507000: board.processor.cores.core.mmu.dtb: translate(vpn=0x3fffa28b88, asid=0): 0x101015b88
1532928509000: board.processor.cores.core.mmu.itb: lookup(vpn=0x138f8, asid=0): hit ppn 0x10100a
1532928509000: board.processor.cores.core.mmu.itb: translate(vpn=0x138f8, asid=0): 0x10100a8f8
1532928511000: board.processor.cores.core.mmu.itb: lookup(vpn=0x138fc, asid=0): hit ppn 0x10100a
1532928511000: board.processor.cores.core.mmu.itb: translate(vpn=0x138fc, asid=0): 0x10100a8fc
1532928513000: board.processor.cores.core.mmu.dtb: lookup(vpn=0x3fffa28b30, asid=0): hit ppn 0x101015
1532928513000: board.processor.cores.core.mmu.dtb: translate(vpn=0x3fffa28b30, asid=0): 0x101015b30
1532928515000: board.processor.cores.core.mmu.itb: lookup(vpn=0x138fc, asid=0): hit ppn 0x10100a
1532928515000: board.processor.cores.core.mmu.itb: translate(vpn=0x138fc, asid=0): 0x10100a8fc
[...]
1532960569000: board.processor.cores.core.mmu.itb: lookup(vpn=0xffffffe0002012e0, asid=0): hit ppn 0x80400
1532960569000: board.processor.cores.core.mmu.itb: translate(vpn=0xffffffe0002012e0, asid=0): 0x804012e0
1532960571000: board.processor.cores.core.mmu.itb: lookup(vpn=0xffffffe0002012e4, asid=0): hit ppn 0x80400
1532960571000: board.processor.cores.core.mmu.itb: translate(vpn=0xffffffe0002012e4, asid=0): 0x804012e4
1532960573000: board.processor.cores.core.mmu.itb: lookup(vpn=0xffffffe0002012e4, asid=0): hit ppn 0x80400
1532960573000: board.processor.cores.core.mmu.itb: translate(vpn=0xffffffe0002012e4, asid=0): 0x804012e4
1532960575000: board.processor.cores.core.mmu.itb: lookup(vpn=0xffffffe0002012e8, asid=0): hit ppn 0x80400
1532960575000: board.processor.cores.core.mmu.itb: translate(vpn=0xffffffe0002012e8, asid=0): 0x804012e8
1532960577000: board.processor.cores.core.mmu.itb: lookup(vpn=0xffffffe0002012e8, asid=0): hit ppn 0x80400
1532960577000: board.processor.cores.core.mmu.itb: translate(vpn=0xffffffe0002012e8, asid=0): 0x804012e8
1532960579000: board.processor.cores.core.mmu.itb: lookup(vpn=0xffffffe0002012ec, asid=0): hit ppn 0x80400
1532960579000: board.processor.cores.core.mmu.itb: translate(vpn=0xffffffe0002012ec, asid=0): 0x804012ec
1532960581000: board.processor.cores.core.mmu.dtb: lookup(vpn=0xffffffe080aea610, asid=0): hit ppn 0x100c00
1532960581000: board.processor.cores.core.mmu.dtb: translate(vpn=0xffffffe080aea610, asid=0): 0x100cea610
1532960583000: board.processor.cores.core.mmu.itb: lookup(vpn=0xffffffe0002012ec, asid=0): hit ppn 0x80400
1532960583000: board.processor.cores.core.mmu.itb: translate(vpn=0xffffffe0002012ec, asid=0): 0x804012ec
1532960585000: board.processor.cores.core.mmu.itb: lookup(vpn=0xffffffe0002012f0, asid=0): hit ppn 0x80400
1532960585000: board.processor.cores.core.mmu.itb: translate(vpn=0xffffffe0002012f0, asid=0): 0x804012f0
1532960587000: board.processor.cores.core.mmu.itb: lookup(vpn=0xffffffe0002012f0, asid=0): hit ppn 0x80400
1532960587000: board.processor.cores.core.mmu.itb: translate(vpn=0xffffffe0002012f0, asid=0): 0x804012f0
1532960589000: board.processor.cores.core.mmu.dtb: lookup(vpn=0xffffffe080a7bfe0, asid=0): hit ppn 0x100c00
1532960589000: board.processor.cores.core.mmu.dtb: translate(vpn=0xffffffe080a7bfe0, asid=0): 0x100c7bfe0
1532960591000: board.processor.cores.core.mmu.itb: lookup(vpn=0xffffffe0002012f4, asid=0): hit ppn 0x80400
1532960591000: board.processor.cores.core.mmu.itb: translate(vpn=0xffffffe0002012f4, asid=0): 0x804012f4
1532960593000: board.processor.cores.core.mmu.dtb: lookup(vpn=0xffffffe080a7bee0, asid=0): hit ppn 0x100c00
1532960593000: board.processor.cores.core.mmu.dtb: translate(vpn=0xffffffe080a7bee0, asid=0): 0x100c7bee0
1532960595000: board.processor.cores.core.mmu.itb: lookup(vpn=0xffffffe0002012f4, asid=0): hit ppn 0x80400
1532960595000: board.processor.cores.core.mmu.itb: translate(vpn=0xffffffe0002012f4, asid=0): 0x804012f4
1532960597000: board.processor.cores.core.mmu.itb: lookup(vpn=0xffffffe0002012f8, asid=0): hit ppn 0x80400
1532960597000: board.processor.cores.core.mmu.itb: translate(vpn=0xffffffe0002012f8, asid=0): 0x804012f8
1532960599000: board.processor.cores.core.mmu.dtb: lookup(vpn=0xffffffe080a7bee0, asid=0): hit ppn 0x100c00
1532960599000: board.processor.cores.core.mmu.dtb: translate(vpn=0xffffffe080a7bee0, asid=0): 0x100c7bee0
1532960599000: board.processor.cores.core.mmu.itb: lookup(vpn=0xffffffe0002012f8, asid=0): hit ppn 0x80400
1532960599000: board.processor.cores.core.mmu.itb: translate(vpn=0xffffffe0002012f8, asid=0): 0x804012f8
1532960601000: board.processor.cores.core.mmu.itb: lookup(vpn=0xffffffe0002012fc, asid=0): hit ppn 0x80400
1532960601000: board.processor.cores.core.mmu.itb: translate(vpn=0xffffffe0002012fc, asid=0): 0x804012fc
1532960603000: board.processor.cores.core.mmu.itb: lookup(vpn=0xffffffe0002012fc, asid=0): hit ppn 0x80400
1532960603000: board.processor.cores.core.mmu.itb: translate(vpn=0xffffffe0002012fc, asid=0): 0x804012fc
1532960605000: board.processor.cores.core.mmu.itb: lookup(vpn=0xffffffe000201300, asid=0): hit ppn 0x80400
1532960605000: board.processor.cores.core.mmu.itb: translate(vpn=0xffffffe000201300, asid=0): 0x80401300
1532960607000: board.processor.cores.core.mmu.itb: lookup(vpn=0xffffffe000201300, asid=0): hit ppn 0x80400
1532960607000: board.processor.cores.core.mmu.itb: translate(vpn=0xffffffe000201300, asid=0): 0x80401300
1532960609000: board.processor.cores.core.mmu.dtb: lookup(vpn=0xffffffe080a7bee8, asid=0): hit ppn 0x100c00
1532960609000: board.processor.cores.core.mmu.dtb: translate(vpn=0xffffffe080a7bee8, asid=0): 0x100c7bee8
1532960611000: board.processor.cores.core.mmu.itb: lookup(vpn=0xffffffe000201304, asid=0): hit ppn 0x80400
1532960611000: board.processor.cores.core.mmu.itb: translate(vpn=0xffffffe000201304, asid=0): 0x80401304
1532960613000: board.processor.cores.core.mmu.dtb: lookup(vpn=0xffffffe080a7bef8, asid=0): hit ppn 0x100c00
1532960613000: board.processor.cores.core.mmu.dtb: translate(vpn=0xffffffe080a7bef8, asid=0): 0x100c7bef8
1532960615000: board.processor.cores.core.mmu.itb: lookup(vpn=0xffffffe000201304, asid=0): hit ppn 0x80400
1532960615000: board.processor.cores.core.mmu.itb: translate(vpn=0xffffffe000201304, asid=0): 0x80401304
1532960617000: board.processor.cores.core.mmu.dtb: lookup(vpn=0xffffffe080a7bf00, asid=0): hit ppn 0x100c00
1532960617000: board.processor.cores.core.mmu.dtb: translate(vpn=0xffffffe080a7bf00, asid=0): 0x100c7bf00
1532960619000: board.processor.cores.core.mmu.itb: lookup(vpn=0xffffffe000201308, asid=0): hit ppn 0x80400
1532960619000: board.processor.cores.core.mmu.itb: translate(vpn=0xffffffe000201308, asid=0): 0x80401308
1532960621000: board.processor.cores.core.mmu.dtb: lookup(vpn=0xffffffe080a7bf08, asid=0): hit ppn 0x100c00
1532960621000: board.processor.cores.core.mmu.dtb: translate(vpn=0xffffffe080a7bf08, asid=0): 0x100c7bf08
1532960623000: board.processor.cores.core.mmu.itb: lookup(vpn=0xffffffe000201308, asid=0): hit ppn 0x80400
1532960623000: board.processor.cores.core.mmu.itb: translate(vpn=0xffffffe000201308, asid=0): 0x80401308
1532960625000: board.processor.cores.core.mmu.dtb: lookup(vpn=0xffffffe080a7bf10, asid=0): hit ppn 0x100c00
1532960625000: board.processor.cores.core.mmu.dtb: translate(vpn=0xffffffe080a7bf10, asid=0): 0x100c7bf10
1532960627000: board.processor.cores.core.mmu.itb: lookup(vpn=0xffffffe00020130c, asid=0): hit ppn 0x80400
1532960627000: board.processor.cores.core.mmu.itb: translate(vpn=0xffffffe00020130c, asid=0): 0x8040130c
1532960629000: board.processor.cores.core.mmu.dtb: lookup(vpn=0xffffffe080a7bf18, asid=0): hit ppn 0x100c00
1532960629000: board.processor.cores.core.mmu.dtb: translate(vpn=0xffffffe080a7bf18, asid=0): 0x100c7bf18
1532960631000: board.processor.cores.core.mmu.itb: lookup(vpn=0xffffffe00020130c, asid=0): hit ppn 0x80400
1532960631000: board.processor.cores.core.mmu.itb: translate(vpn=0xffffffe00020130c, asid=0): 0x8040130c
1532960633000: board.processor.cores.core.mmu.dtb: lookup(vpn=0xffffffe080a7bf20, asid=0): hit ppn 0x100c00
1532960633000: board.processor.cores.core.mmu.dtb: translate(vpn=0xffffffe080a7bf20, asid=0): 0x100c7bf20
1532960635000: board.processor.cores.core.mmu.itb: lookup(vpn=0xffffffe000201310, asid=0): hit ppn 0x80400
1532960635000: board.processor.cores.core.mmu.itb: translate(vpn=0xffffffe000201310, asid=0): 0x80401310
1532960637000: board.processor.cores.core.mmu.dtb: lookup(vpn=0xffffffe080a7bf28, asid=0): hit ppn 0x100c00
1532960637000: board.processor.cores.core.mmu.dtb: translate(vpn=0xffffffe080a7bf28, asid=0): 0x100c7bf28
1532960639000: board.processor.cores.core.mmu.itb: lookup(vpn=0xffffffe000201310, asid=0): hit ppn 0x80400
1532960639000: board.processor.cores.core.mmu.itb: translate(vpn=0xffffffe000201310, asid=0): 0x80401310
1532960641000: board.processor.cores.core.mmu.dtb: lookup(vpn=0xffffffe080a7bf30, asid=0): hit ppn 0x100c00
1532960641000: board.processor.cores.core.mmu.dtb: translate(vpn=0xffffffe080a7bf30, asid=0): 0x100c7bf30
1532960643000: board.processor.cores.core.mmu.itb: lookup(vpn=0xffffffe000201314, asid=0): hit ppn 0x80400
1532960643000: board.processor.cores.core.mmu.itb: translate(vpn=0xffffffe000201314, asid=0): 0x80401314
1532960645000: board.processor.cores.core.mmu.dtb: lookup(vpn=0xffffffe080a7bf38, asid=0): hit ppn 0x100c00
1532960645000: board.processor.cores.core.mmu.dtb: translate(vpn=0xffffffe080a7bf38, asid=0): 0x100c7bf38
1532960647000: board.processor.cores.core.mmu.itb: lookup(vpn=0xffffffe000201314, asid=0): hit ppn 0x80400
1532960647000: board.processor.cores.core.mmu.itb: translate(vpn=0xffffffe000201314, asid=0): 0x80401314
1532960649000: board.processor.cores.core.mmu.dtb: lookup(vpn=0xffffffe080a7bf40, asid=0): hit ppn 0x100c00
1532960649000: board.processor.cores.core.mmu.dtb: translate(vpn=0xffffffe080a7bf40, asid=0): 0x100c7bf40
1532960651000: board.processor.cores.core.mmu.itb: lookup(vpn=0xffffffe000201318, asid=0): hit ppn 0x80400
1532960651000: board.processor.cores.core.mmu.itb: translate(vpn=0xffffffe000201318, asid=0): 0x80401318
1532960653000: board.processor.cores.core.mmu.dtb: lookup(vpn=0xffffffe080a7bf48, asid=0): hit ppn 0x100c00
1532960653000: board.processor.cores.core.mmu.dtb: translate(vpn=0xffffffe080a7bf48, asid=0): 0x100c7bf48
1532960655000: board.processor.cores.core.mmu.itb: lookup(vpn=0xffffffe000201318, asid=0): hit ppn 0x80400
1532960655000: board.processor.cores.core.mmu.itb: translate(vpn=0xffffffe000201318, asid=0): 0x80401318
1532960657000: board.processor.cores.core.mmu.dtb: lookup(vpn=0xffffffe080a7bf50, asid=0): hit ppn 0x100c00
1532960657000: board.processor.cores.core.mmu.dtb: translate(vpn=0xffffffe080a7bf50, asid=0): 0x100c7bf50
1532960659000: board.processor.cores.core.mmu.itb: lookup(vpn=0xffffffe00020131c, asid=0): hit ppn 0x80400
1532960659000: board.processor.cores.core.mmu.itb: translate(vpn=0xffffffe00020131c, asid=0): 0x8040131c
1532960661000: board.processor.cores.core.mmu.dtb: lookup(vpn=0xffffffe080a7bf58, asid=0): hit ppn 0x100c00
1532960661000: board.processor.cores.core.mmu.dtb: translate(vpn=0xffffffe080a7bf58, asid=0): 0x100c7bf58
1532960663000: board.processor.cores.core.mmu.itb: lookup(vpn=0xffffffe00020131c, asid=0): hit ppn 0x80400
1532960663000: board.processor.cores.core.mmu.itb: translate(vpn=0xffffffe00020131c, asid=0): 0x8040131c
1532960665000: board.processor.cores.core.mmu.dtb: lookup(vpn=0xffffffe080a7bf60, asid=0): hit ppn 0x100c00
1532960665000: board.processor.cores.core.mmu.dtb: translate(vpn=0xffffffe080a7bf60, asid=0): 0x100c7bf60
1532960667000: board.processor.cores.core.mmu.itb: lookup(vpn=0xffffffe000201320, asid=0): hit ppn 0x80400
1532960667000: board.processor.cores.core.mmu.itb: translate(vpn=0xffffffe000201320, asid=0): 0x80401320
1532960669000: board.processor.cores.core.mmu.dtb: lookup(vpn=0xffffffe080a7bf68, asid=0): hit ppn 0x100c00
1532960669000: board.processor.cores.core.mmu.dtb: translate(vpn=0xffffffe080a7bf68, asid=0): 0x100c7bf68
1532960671000: board.processor.cores.core.mmu.itb: lookup(vpn=0xffffffe000201320, asid=0): hit ppn 0x80400
1532960671000: board.processor.cores.core.mmu.itb: translate(vpn=0xffffffe000201320, asid=0): 0x80401320
1532960673000: board.processor.cores.core.mmu.dtb: lookup(vpn=0xffffffe080a7bf70, asid=0): hit ppn 0x100c00
1532960673000: board.processor.cores.core.mmu.dtb: translate(vpn=0xffffffe080a7bf70, asid=0): 0x100c7bf70
1532960675000: board.processor.cores.core.mmu.itb: lookup(vpn=0xffffffe000201324, asid=0): hit ppn 0x80400
1532960675000: board.processor.cores.core.mmu.itb: translate(vpn=0xffffffe000201324, asid=0): 0x80401324
1532960677000: board.processor.cores.core.mmu.dtb: lookup(vpn=0xffffffe080a7bf78, asid=0): hit ppn 0x100c00
1532960677000: board.processor.cores.core.mmu.dtb: translate(vpn=0xffffffe080a7bf78, asid=0): 0x100c7bf78
1532960679000: board.processor.cores.core.mmu.itb: lookup(vpn=0xffffffe000201324, asid=0): hit ppn 0x80400
1532960679000: board.processor.cores.core.mmu.itb: translate(vpn=0xffffffe000201324, asid=0): 0x80401324
1532960681000: board.processor.cores.core.mmu.dtb: lookup(vpn=0xffffffe080a7bf80, asid=0): hit ppn 0x100c00
1532960681000: board.processor.cores.core.mmu.dtb: translate(vpn=0xffffffe080a7bf80, asid=0): 0x100c7bf80
1532960683000: board.processor.cores.core.mmu.itb: lookup(vpn=0xffffffe000201328, asid=0): hit ppn 0x80400
1532960683000: board.processor.cores.core.mmu.itb: translate(vpn=0xffffffe000201328, asid=0): 0x80401328
1532960685000: board.processor.cores.core.mmu.dtb: lookup(vpn=0xffffffe080a7bf88, asid=0): hit ppn 0x100c00
1532960685000: board.processor.cores.core.mmu.dtb: translate(vpn=0xffffffe080a7bf88, asid=0): 0x100c7bf88
1532960687000: board.processor.cores.core.mmu.itb: lookup(vpn=0xffffffe000201328, asid=0): hit ppn 0x80400
1532960687000: board.processor.cores.core.mmu.itb: translate(vpn=0xffffffe000201328, asid=0): 0x80401328
1532960689000: board.processor.cores.core.mmu.dtb: lookup(vpn=0xffffffe080a7bf90, asid=0): hit ppn 0x100c00
1532960689000: board.processor.cores.core.mmu.dtb: translate(vpn=0xffffffe080a7bf90, asid=0): 0x100c7bf90
1532960691000: board.processor.cores.core.mmu.itb: lookup(vpn=0xffffffe00020132c, asid=0): hit ppn 0x80400
1532960691000: board.processor.cores.core.mmu.itb: translate(vpn=0xffffffe00020132c, asid=0): 0x8040132c
1532960693000: board.processor.cores.core.mmu.dtb: lookup(vpn=0xffffffe080a7bf98, asid=0): hit ppn 0x100c00
1532960693000: board.processor.cores.core.mmu.dtb: translate(vpn=0xffffffe080a7bf98, asid=0): 0x100c7bf98
1532960695000: board.processor.cores.core.mmu.itb: lookup(vpn=0xffffffe00020132c, asid=0): hit ppn 0x80400
1532960695000: board.processor.cores.core.mmu.itb: translate(vpn=0xffffffe00020132c, asid=0): 0x8040132c
1532960697000: board.processor.cores.core.mmu.dtb: lookup(vpn=0xffffffe080a7bfa0, asid=0): hit ppn 0x100c00
1532960697000: board.processor.cores.core.mmu.dtb: translate(vpn=0xffffffe080a7bfa0, asid=0): 0x100c7bfa0
1532960699000: board.processor.cores.core.mmu.itb: lookup(vpn=0xffffffe000201330, asid=0): hit ppn 0x80400
1532960699000: board.processor.cores.core.mmu.itb: translate(vpn=0xffffffe000201330, asid=0): 0x80401330
1532960701000: board.processor.cores.core.mmu.dtb: lookup(vpn=0xffffffe080a7bfa8, asid=0): hit ppn 0x100c00
1532960701000: board.processor.cores.core.mmu.dtb: translate(vpn=0xffffffe080a7bfa8, asid=0): 0x100c7bfa8
1532960703000: board.processor.cores.core.mmu.itb: lookup(vpn=0xffffffe000201330, asid=0): hit ppn 0x80400
1532960703000: board.processor.cores.core.mmu.itb: translate(vpn=0xffffffe000201330, asid=0): 0x80401330
1532960705000: board.processor.cores.core.mmu.dtb: lookup(vpn=0xffffffe080a7bfb0, asid=0): hit ppn 0x100c00
1532960705000: board.processor.cores.core.mmu.dtb: translate(vpn=0xffffffe080a7bfb0, asid=0): 0x100c7bfb0
1532960707000: board.processor.cores.core.mmu.itb: lookup(vpn=0xffffffe000201334, asid=0): hit ppn 0x80400
1532960707000: board.processor.cores.core.mmu.itb: translate(vpn=0xffffffe000201334, asid=0): 0x80401334
1532960709000: board.processor.cores.core.mmu.dtb: lookup(vpn=0xffffffe080a7bfb8, asid=0): hit ppn 0x100c00
1532960709000: board.processor.cores.core.mmu.dtb: translate(vpn=0xffffffe080a7bfb8, asid=0): 0x100c7bfb8
1532960711000: board.processor.cores.core.mmu.itb: lookup(vpn=0xffffffe000201334, asid=0): hit ppn 0x80400
1532960711000: board.processor.cores.core.mmu.itb: translate(vpn=0xffffffe000201334, asid=0): 0x80401334
1532960713000: board.processor.cores.core.mmu.dtb: lookup(vpn=0xffffffe080a7bfc0, asid=0): hit ppn 0x100c00
1532960713000: board.processor.cores.core.mmu.dtb: translate(vpn=0xffffffe080a7bfc0, asid=0): 0x100c7bfc0
1532960715000: board.processor.cores.core.mmu.itb: lookup(vpn=0xffffffe000201338, asid=0): hit ppn 0x80400
1532960715000: board.processor.cores.core.mmu.itb: translate(vpn=0xffffffe000201338, asid=0): 0x80401338
1532960717000: board.processor.cores.core.mmu.dtb: lookup(vpn=0xffffffe080a7bfc8, asid=0): hit ppn 0x100c00
1532960717000: board.processor.cores.core.mmu.dtb: translate(vpn=0xffffffe080a7bfc8, asid=0): 0x100c7bfc8
1532960719000: board.processor.cores.core.mmu.itb: lookup(vpn=0xffffffe000201338, asid=0): hit ppn 0x80400
1532960719000: board.processor.cores.core.mmu.itb: translate(vpn=0xffffffe000201338, asid=0): 0x80401338
1532960721000: board.processor.cores.core.mmu.dtb: lookup(vpn=0xffffffe080a7bfd0, asid=0): hit ppn 0x100c00
1532960721000: board.processor.cores.core.mmu.dtb: translate(vpn=0xffffffe080a7bfd0, asid=0): 0x100c7bfd0
1532960723000: board.processor.cores.core.mmu.itb: lookup(vpn=0xffffffe00020133c, asid=0): hit ppn 0x80400
1532960723000: board.processor.cores.core.mmu.itb: translate(vpn=0xffffffe00020133c, asid=0): 0x8040133c
1532960725000: board.processor.cores.core.mmu.dtb: lookup(vpn=0xffffffe080a7bfd8, asid=0): hit ppn 0x100c00
1532960725000: board.processor.cores.core.mmu.dtb: translate(vpn=0xffffffe080a7bfd8, asid=0): 0x100c7bfd8
1532960727000: board.processor.cores.core.mmu.itb: lookup(vpn=0xffffffe00020133c, asid=0): hit ppn 0x80400
1532960727000: board.processor.cores.core.mmu.itb: translate(vpn=0xffffffe00020133c, asid=0): 0x8040133c
1532960729000: board.processor.cores.core.mmu.dtb: lookup(vpn=0xffffffe080a7bef0, asid=0): hit ppn 0x100c00
1532960729000: board.processor.cores.core.mmu.dtb: translate(vpn=0xffffffe080a7bef0, asid=0): 0x100c7bef0
1532960731000: board.processor.cores.core.mmu.itb: lookup(vpn=0xffffffe000201340, asid=0): hit ppn 0x80400
1532960731000: board.processor.cores.core.mmu.itb: translate(vpn=0xffffffe000201340, asid=0): 0x80401340
1532960817000: board.processor.cores.core.mmu.itb: lookup(vpn=0x10534, asid=0): hit ppn 0x101011
1532960817000: board.processor.cores.core.mmu.itb: translate(vpn=0x10534, asid=0): 0x101011534
1532960819000: board.processor.cores.core.mmu.itb: lookup(vpn=0x10538, asid=0): hit ppn 0x101011
1532960819000: board.processor.cores.core.mmu.itb: translate(vpn=0x10538, asid=0): 0x101011538
1532960821000: board.processor.cores.core.mmu.dtb: lookup(vpn=0x3fc80f3000, asid=0): miss ppn 0
1532960821000: board.processor.cores.core.mmu.dtb.walker: Performing table walk for address 0x3fc80f3000
1532960821000: board.processor.cores.core.mmu.dtb.walker: Loading level2 PTE from 0x100caa7f8
1532960822001: board.processor.cores.core.mmu.dtb.walker: Got level2 PTE: 0x4031c001
1532960822001: board.processor.cores.core.mmu.dtb.walker: Loading level1 PTE from 0x100c70200
1532960824001: board.processor.cores.core.mmu.dtb.walker: Got level1 PTE: 0x40329801
1532960824001: board.processor.cores.core.mmu.dtb.walker: Loading level0 PTE from 0x100ca6798
1532960826001: board.processor.cores.core.mmu.dtb.walker: Got level0 PTE: 0x404298d7
1532960826001: board.processor.cores.core.mmu.dtb: insert(vpn=0x3fc80f3000, asid=0): ppn=0x1010a6 pte=0x404298d7 size=0x1000
1532960826001: board.processor.cores.core.mmu.dtb: lookup(vpn=0x3fc80f3000, asid=0): hit ppn 0x1010a6
1532960829000: board.processor.cores.core.mmu.itb: lookup(vpn=0x10538, asid=0): hit ppn 0x101011
1532960829000: board.processor.cores.core.mmu.itb: translate(vpn=0x10538, asid=0): 0x101011538
1532960831000: board.processor.cores.core.mmu.itb: lookup(vpn=0x1053c, asid=0): hit ppn 0x101011
1532960831000: board.processor.cores.core.mmu.itb: translate(vpn=0x1053c, asid=0): 0x10101153c
1532960833000: board.processor.cores.core.mmu.itb: lookup(vpn=0x10574, asid=0): hit ppn 0x101011
1532960833000: board.processor.cores.core.mmu.itb: translate(vpn=0x10574, asid=0): 0x101011574
1532960919000: board.processor.cores.core.mmu.itb: lookup(vpn=0x10578, asid=0): hit ppn 0x101011
1532960919000: board.processor.cores.core.mmu.itb: translate(vpn=0x10578, asid=0): 0x101011578
1532960921000: board.processor.cores.core.mmu.itb: lookup(vpn=0x10578, asid=0): hit ppn 0x101011
1532960921000: board.processor.cores.core.mmu.itb: translate(vpn=0x10578, asid=0): 0x101011578
