
---------- Begin Simulation Statistics ----------
simSeconds                                   1.532961                       # Number of seconds simulated (Second)
simTicks                                 1532960921000                       # Number of ticks simulated (Tick)
finalTick                                1532960921000                       # Number of ticks from beginning of simulation (restored from checkpoints and never reset) (Tick)
simFreq                                  1000000000000                       # The number of ticks per simulated second ((Tick/Second))
hostSeconds                                    843.73                       # Real time elapsed on the host (Second)
hostTickRate                               1816894913                       # The number of ticks simulated per host second (ticks/s) ((Tick/Second))
hostMemory                                   12288548                       # Number of bytes of host memory used (Byte)
simInsts                                    217737649                       # Number of instructions simulated (Count)
simOps                                      218173982                       # Number of ops (including micro ops) simulated (Count)
hostInstRate                                   258067                       # Simulator instruction rate (inst/s) ((Count/Second))
hostOpRate                                     258584                       # Simulator op (including micro ops) rate (op/s) ((Count/Second))
board.cache_hierarchy.ruby_system.delayHistogram::bucket_size            1                       # delay histogram for all message (Unspecified)
board.cache_hierarchy.ruby_system.delayHistogram::max_bucket            9                       # delay histogram for all message (Unspecified)
board.cache_hierarchy.ruby_system.delayHistogram::samples     23288568                       # delay histogram for all message (Unspecified)
board.cache_hierarchy.ruby_system.delayHistogram |    23288568    100.00%    100.00% |           0      0.00%    100.00% |           0      0.00%    100.00% |           0      0.00%    100.00% |           0      0.00%    100.00% |           0      0.00%    100.00% |           0      0.00%    100.00% |           0      0.00%    100.00% |           0      0.00%    100.00% |           0      0.00%    100.00% # delay histogram for all message (Unspecified)
board.cache_hierarchy.ruby_system.delayHistogram::total     23288568                       # delay histogram for all message (Unspecified)
board.cache_hierarchy.ruby_system.m_outstandReqHistSeqr::bucket_size            1                       (Unspecified)
board.cache_hierarchy.ruby_system.m_outstandReqHistSeqr::max_bucket            9                       (Unspecified)
board.cache_hierarchy.ruby_system.m_outstandReqHistSeqr::samples    364943483                       (Unspecified)
board.cache_hierarchy.ruby_system.m_outstandReqHistSeqr::mean            1                       (Unspecified)
board.cache_hierarchy.ruby_system.m_outstandReqHistSeqr::gmean            1                       (Unspecified)
board.cache_hierarchy.ruby_system.m_outstandReqHistSeqr |           0      0.00%      0.00% |   364943483    100.00%    100.00% |           0      0.00%    100.00% |           0      0.00%    100.00% |           0      0.00%    100.00% |           0      0.00%    100.00% |           0      0.00%    100.00% |           0      0.00%    100.00% |           0      0.00%    100.00% |           0      0.00%    100.00% (Unspecified)
board.cache_hierarchy.ruby_system.m_outstandReqHistSeqr::total    364943483                       (Unspecified)
board.cache_hierarchy.ruby_system.m_latencyHistSeqr::bucket_size           64                       (Unspecified)
board.cache_hierarchy.ruby_system.m_latencyHistSeqr::max_bucket          639                       (Unspecified)
board.cache_hierarchy.ruby_system.m_latencyHistSeqr::samples    364943482                       (Unspecified)
board.cache_hierarchy.ruby_system.m_latencyHistSeqr::mean     3.185114                       (Unspecified)
board.cache_hierarchy.ruby_system.m_latencyHistSeqr::gmean     1.142088                       (Unspecified)
board.cache_hierarchy.ruby_system.m_latencyHistSeqr::stdev    13.941726                       (Unspecified)
board.cache_hierarchy.ruby_system.m_latencyHistSeqr |   362579455     99.35%     99.35% |     1478074      0.41%     99.76% |      595717      0.16%     99.92% |      148314      0.04%     99.96% |      100579      0.03%     99.99% |       34212      0.01%    100.00% |        1022      0.00%    100.00% |        4762      0.00%    100.00% |        1347      0.00%    100.00% |           0      0.00%    100.00% (Unspecified)
board.cache_hierarchy.ruby_system.m_latencyHistSeqr::total    364943482                       (Unspecified)
board.cache_hierarchy.ruby_system.m_hitLatencyHistSeqr::bucket_size            1                       (Unspecified)
board.cache_hierarchy.ruby_system.m_hitLatencyHistSeqr::max_bucket            9                       (Unspecified)
board.cache_hierarchy.ruby_system.m_hitLatencyHistSeqr::samples    353298942                       (Unspecified)
board.cache_hierarchy.ruby_system.m_hitLatencyHistSeqr::mean            1                       (Unspecified)
board.cache_hierarchy.ruby_system.m_hitLatencyHistSeqr::gmean            1                       (Unspecified)
board.cache_hierarchy.ruby_system.m_hitLatencyHistSeqr |           0      0.00%      0.00% |   353298942    100.00%    100.00% |           0      0.00%    100.00% |           0      0.00%    100.00% |           0      0.00%    100.00% |           0      0.00%    100.00% |           0      0.00%    100.00% |           0      0.00%    100.00% |           0      0.00%    100.00% |           0      0.00%    100.00% (Unspecified)
board.cache_hierarchy.ruby_system.m_hitLatencyHistSeqr::total    353298942                       (Unspecified)
board.cache_hierarchy.ruby_system.m_missLatencyHistSeqr::bucket_size           64                       (Unspecified)
board.cache_hierarchy.ruby_system.m_missLatencyHistSeqr::max_bucket          639                       (Unspecified)
board.cache_hierarchy.ruby_system.m_missLatencyHistSeqr::samples     11644540                       (Unspecified)
board.cache_hierarchy.ruby_system.m_missLatencyHistSeqr::mean    69.482159                       (Unspecified)
board.cache_hierarchy.ruby_system.m_missLatencyHistSeqr::gmean    64.316547                       (Unspecified)
board.cache_hierarchy.ruby_system.m_missLatencyHistSeqr::stdev    39.389154                       (Unspecified)
board.cache_hierarchy.ruby_system.m_missLatencyHistSeqr |     9280513     79.70%     79.70% |     1478074     12.69%     92.39% |      595717      5.12%     97.51% |      148314      1.27%     98.78% |      100579      0.86%     99.64% |       34212      0.29%     99.94% |        1022      0.01%     99.95% |        4762      0.04%     99.99% |        1347      0.01%    100.00% |           0      0.00%    100.00% (Unspecified)
board.cache_hierarchy.ruby_system.m_missLatencyHistSeqr::total     11644540                       (Unspecified)
board.cache_hierarchy.ruby_system.delayVCHist.vnet_1::bucket_size            1                       # delay histogram for vnet_1 (Unspecified)
board.cache_hierarchy.ruby_system.delayVCHist.vnet_1::max_bucket            9                       # delay histogram for vnet_1 (Unspecified)
board.cache_hierarchy.ruby_system.delayVCHist.vnet_1::samples     11644540                       # delay histogram for vnet_1 (Unspecified)
board.cache_hierarchy.ruby_system.delayVCHist.vnet_1 |    11644540    100.00%    100.00% |           0      0.00%    100.00% |           0      0.00%    100.00% |           0      0.00%    100.00% |           0      0.00%    100.00% |           0      0.00%    100.00% |           0      0.00%    100.00% |           0      0.00%    100.00% |           0      0.00%    100.00% |           0      0.00%    100.00% # delay histogram for vnet_1 (Unspecified)
board.cache_hierarchy.ruby_system.delayVCHist.vnet_1::total     11644540                       # delay histogram for vnet_1 (Unspecified)
board.cache_hierarchy.ruby_system.delayVCHist.vnet_2::bucket_size            1                       # delay histogram for vnet_2 (Unspecified)
board.cache_hierarchy.ruby_system.delayVCHist.vnet_2::max_bucket            9                       # delay histogram for vnet_2 (Unspecified)
board.cache_hierarchy.ruby_system.delayVCHist.vnet_2::samples     11644028                       # delay histogram for vnet_2 (Unspecified)
board.cache_hierarchy.ruby_system.delayVCHist.vnet_2 |    11644028    100.00%    100.00% |           0      0.00%    100.00% |           0      0.00%    100.00% |           0      0.00%    100.00% |           0      0.00%    100.00% |           0      0.00%    100.00% |           0      0.00%    100.00% |           0      0.00%    100.00% |           0      0.00%    100.00% |           0      0.00%    100.00% # delay histogram for vnet_2 (Unspecified)
board.cache_hierarchy.ruby_system.delayVCHist.vnet_2::total     11644028                       # delay histogram for vnet_2 (Unspecified)
board.cache_hierarchy.ruby_system.L1Cache_Controller.Load     36216278      0.00%      0.00% (Unspecified)
board.cache_hierarchy.ruby_system.L1Cache_Controller.Ifetch    267783152      0.00%      0.00% (Unspecified)
board.cache_hierarchy.ruby_system.L1Cache_Controller.Store     60944052      0.00%      0.00% (Unspecified)
board.cache_hierarchy.ruby_system.L1Cache_Controller.Data     11644540      0.00%      0.00% (Unspecified)
board.cache_hierarchy.ruby_system.L1Cache_Controller.Replacement     11644028      0.00%      0.00% (Unspecified)
board.cache_hierarchy.ruby_system.L1Cache_Controller.Writeback_Ack     11644028      0.00%      0.00% (Unspecified)
board.cache_hierarchy.ruby_system.L1Cache_Controller.I.Load      3067593      0.00%      0.00% (Unspecified)
board.cache_hierarchy.ruby_system.L1Cache_Controller.I.Ifetch      1571652      0.00%      0.00% (Unspecified)
board.cache_hierarchy.ruby_system.L1Cache_Controller.I.Store      7005295      0.00%      0.00% (Unspecified)
board.cache_hierarchy.ruby_system.L1Cache_Controller.M.Load     33148685      0.00%      0.00% (Unspecified)
board.cache_hierarchy.ruby_system.L1Cache_Controller.M.Ifetch    266211500      0.00%      0.00% (Unspecified)
board.cache_hierarchy.ruby_system.L1Cache_Controller.M.Store     53938757      0.00%      0.00% (Unspecified)
board.cache_hierarchy.ruby_system.L1Cache_Controller.M.Replacement     11644028      0.00%      0.00% (Unspecified)
board.cache_hierarchy.ruby_system.L1Cache_Controller.MI.Writeback_Ack     11644028      0.00%      0.00% (Unspecified)
board.cache_hierarchy.ruby_system.L1Cache_Controller.IS.Data      4639245      0.00%      0.00% (Unspecified)
board.cache_hierarchy.ruby_system.L1Cache_Controller.IM.Data      7005295      0.00%      0.00% (Unspecified)
board.cache_hierarchy.ruby_system.Directory_Controller.GETX     11644540      0.00%      0.00% (Unspecified)
board.cache_hierarchy.ruby_system.Directory_Controller.PUTX     11644028      0.00%      0.00% (Unspecified)
board.cache_hierarchy.ruby_system.Directory_Controller.Memory_Data     11644540      0.00%      0.00% (Unspecified)
board.cache_hierarchy.ruby_system.Directory_Controller.Memory_Ack     11644028      0.00%      0.00% (Unspecified)
board.cache_hierarchy.ruby_system.Directory_Controller.I.GETX     11644540      0.00%      0.00% (Unspecified)
board.cache_hierarchy.ruby_system.Directory_Controller.M.PUTX     11644028      0.00%      0.00% (Unspecified)
board.cache_hierarchy.ruby_system.Directory_Controller.IM.Memory_Data     11644540      0.00%      0.00% (Unspecified)
board.cache_hierarchy.ruby_system.Directory_Controller.MI.Memory_Ack     11644028      0.00%      0.00% (Unspecified)
board.cache_hierarchy.ruby_system.MachineType.Directory.miss_mach_latency_hist_seqr::bucket_size           64                       (Unspecified)
board.cache_hierarchy.ruby_system.MachineType.Directory.miss_mach_latency_hist_seqr::max_bucket          639                       (Unspecified)
board.cache_hierarchy.ruby_system.MachineType.Directory.miss_mach_latency_hist_seqr::samples     11644540                       (Unspecified)
board.cache_hierarchy.ruby_system.MachineType.Directory.miss_mach_latency_hist_seqr::mean    69.482159                       (Unspecified)
board.cache_hierarchy.ruby_system.MachineType.Directory.miss_mach_latency_hist_seqr::gmean    64.316547                       (Unspecified)
board.cache_hierarchy.ruby_system.MachineType.Directory.miss_mach_latency_hist_seqr::stdev    39.389154                       (Unspecified)
board.cache_hierarchy.ruby_system.MachineType.Directory.miss_mach_latency_hist_seqr |     9280513     79.70%     79.70% |     1478074     12.69%     92.39% |      595717      5.12%     97.51% |      148314      1.27%     98.78% |      100579      0.86%     99.64% |       34212      0.29%     99.94% |        1022      0.01%     99.95% |        4762      0.04%     99.99% |        1347      0.01%    100.00% |           0      0.00%    100.00% (Unspecified)
board.cache_hierarchy.ruby_system.MachineType.Directory.miss_mach_latency_hist_seqr::total     11644540                       (Unspecified)
board.cache_hierarchy.ruby_system.MachineType.Directory.miss_latency_hist_seqr.issue_to_initial_request::bucket_size            1                       (Unspecified)
board.cache_hierarchy.ruby_system.MachineType.Directory.miss_latency_hist_seqr.issue_to_initial_request::max_bucket            9                       (Unspecified)
board.cache_hierarchy.ruby_system.MachineType.Directory.miss_latency_hist_seqr.issue_to_initial_request::samples            1                       (Unspecified)
board.cache_hierarchy.ruby_system.MachineType.Directory.miss_latency_hist_seqr.issue_to_initial_request::stdev          nan                       (Unspecified)
board.cache_hierarchy.ruby_system.MachineType.Directory.miss_latency_hist_seqr.issue_to_initial_request |           1    100.00%    100.00% |           0      0.00%    100.00% |           0      0.00%    100.00% |           0      0.00%    100.00% |           0      0.00%    100.00% |           0      0.00%    100.00% |           0      0.00%    100.00% |           0      0.00%    100.00% |           0      0.00%    100.00% |           0      0.00%    100.00% (Unspecified)
board.cache_hierarchy.ruby_system.MachineType.Directory.miss_latency_hist_seqr.issue_to_initial_request::total            1                       (Unspecified)
board.cache_hierarchy.ruby_system.MachineType.Directory.miss_latency_hist_seqr.initial_to_forward::bucket_size            1                       (Unspecified)
board.cache_hierarchy.ruby_system.MachineType.Directory.miss_latency_hist_seqr.initial_to_forward::max_bucket            9                       (Unspecified)
board.cache_hierarchy.ruby_system.MachineType.Directory.miss_latency_hist_seqr.initial_to_forward::samples            1                       (Unspecified)
board.cache_hierarchy.ruby_system.MachineType.Directory.miss_latency_hist_seqr.initial_to_forward::stdev          nan                       (Unspecified)
board.cache_hierarchy.ruby_system.MachineType.Directory.miss_latency_hist_seqr.initial_to_forward |           1    100.00%    100.00% |           0      0.00%    100.00% |           0      0.00%    100.00% |           0      0.00%    100.00% |           0      0.00%    100.00% |           0      0.00%    100.00% |           0      0.00%    100.00% |           0      0.00%    100.00% |           0      0.00%    100.00% |           0      0.00%    100.00% (Unspecified)
board.cache_hierarchy.ruby_system.MachineType.Directory.miss_latency_hist_seqr.initial_to_forward::total            1                       (Unspecified)
board.cache_hierarchy.ruby_system.MachineType.Directory.miss_latency_hist_seqr.forward_to_first_response::bucket_size            1                       (Unspecified)
board.cache_hierarchy.ruby_system.MachineType.Directory.miss_latency_hist_seqr.forward_to_first_response::max_bucket            9                       (Unspecified)
board.cache_hierarchy.ruby_system.MachineType.Directory.miss_latency_hist_seqr.forward_to_first_response::samples            1                       (Unspecified)
board.cache_hierarchy.ruby_system.MachineType.Directory.miss_latency_hist_seqr.forward_to_first_response::stdev          nan                       (Unspecified)
board.cache_hierarchy.ruby_system.MachineType.Directory.miss_latency_hist_seqr.forward_to_first_response |           1    100.00%    100.00% |           0      0.00%    100.00% |           0      0.00%    100.00% |           0      0.00%    100.00% |           0      0.00%    100.00% |           0      0.00%    100.00% |           0      0.00%    100.00% |           0      0.00%    100.00% |           0      0.00%    100.00% |           0      0.00%    100.00% (Unspecified)
board.cache_hierarchy.ruby_system.MachineType.Directory.miss_latency_hist_seqr.forward_to_first_response::total            1                       (Unspecified)
board.cache_hierarchy.ruby_system.MachineType.Directory.miss_latency_hist_seqr.first_response_to_completion::bucket_size            8                       (Unspecified)
board.cache_hierarchy.ruby_system.MachineType.Directory.miss_latency_hist_seqr.first_response_to_completion::max_bucket           79                       (Unspecified)
board.cache_hierarchy.ruby_system.MachineType.Directory.miss_latency_hist_seqr.first_response_to_completion::samples            1                       (Unspecified)
board.cache_hierarchy.ruby_system.MachineType.Directory.miss_latency_hist_seqr.first_response_to_completion::mean           73                       (Unspecified)
board.cache_hierarchy.ruby_system.MachineType.Directory.miss_latency_hist_seqr.first_response_to_completion::gmean    73.000000                       (Unspecified)
board.cache_hierarchy.ruby_system.MachineType.Directory.miss_latency_hist_seqr.first_response_to_completion::stdev          nan                       (Unspecified)
board.cache_hierarchy.ruby_system.MachineType.Directory.miss_latency_hist_seqr.first_response_to_completion |           0      0.00%      0.00% |           0      0.00%      0.00% |           0      0.00%      0.00% |           0      0.00%      0.00% |           0      0.00%      0.00% |           0      0.00%      0.00% |           0      0.00%      0.00% |           0      0.00%      0.00% |           0      0.00%      0.00% |           1    100.00%    100.00% (Unspecified)
board.cache_hierarchy.ruby_system.MachineType.Directory.miss_latency_hist_seqr.first_response_to_completion::total            1                       (Unspecified)
board.cache_hierarchy.ruby_system.MachineType.Directory.incomplete_times_seqr     11644539                       (Unspecified)
board.cache_hierarchy.ruby_system.RequestType.LD.latency_hist_seqr::bucket_size           64                       (Unspecified)
board.cache_hierarchy.ruby_system.RequestType.LD.latency_hist_seqr::max_bucket          639                       (Unspecified)
board.cache_hierarchy.ruby_system.RequestType.LD.latency_hist_seqr::samples     36117143                       (Unspecified)
board.cache_hierarchy.ruby_system.RequestType.LD.latency_hist_seqr::mean     6.890213                       (Unspecified)
board.cache_hierarchy.ruby_system.RequestType.LD.latency_hist_seqr::gmean     1.422881                       (Unspecified)
board.cache_hierarchy.ruby_system.RequestType.LD.latency_hist_seqr::stdev    22.530104                       (Unspecified)
board.cache_hierarchy.ruby_system.RequestType.LD.latency_hist_seqr |    35285295     97.70%     97.70% |      599483      1.66%     99.36% |      158470      0.44%     99.80% |       37020      0.10%     99.90% |       25265      0.07%     99.97% |        9965      0.03%    100.00% |         256      0.00%    100.00% |        1131      0.00%    100.00% |         258      0.00%    100.00% |           0      0.00%    100.00% (Unspecified)
board.cache_hierarchy.ruby_system.RequestType.LD.latency_hist_seqr::total     36117143                       (Unspecified)
board.cache_hierarchy.ruby_system.RequestType.LD.hit_latency_hist_seqr::bucket_size            1                       (Unspecified)
board.cache_hierarchy.ruby_system.RequestType.LD.hit_latency_hist_seqr::max_bucket            9                       (Unspecified)
board.cache_hierarchy.ruby_system.RequestType.LD.hit_latency_hist_seqr::samples     33071963                       (Unspecified)
board.cache_hierarchy.ruby_system.RequestType.LD.hit_latency_hist_seqr::mean            1                       (Unspecified)
board.cache_hierarchy.ruby_system.RequestType.LD.hit_latency_hist_seqr::gmean            1                       (Unspecified)
board.cache_hierarchy.ruby_system.RequestType.LD.hit_latency_hist_seqr |           0      0.00%      0.00% |    33071963    100.00%    100.00% |           0      0.00%    100.00% |           0      0.00%    100.00% |           0      0.00%    100.00% |           0      0.00%    100.00% |           0      0.00%    100.00% |           0      0.00%    100.00% |           0      0.00%    100.00% |           0      0.00%    100.00% (Unspecified)
board.cache_hierarchy.ruby_system.RequestType.LD.hit_latency_hist_seqr::total     33071963                       (Unspecified)
board.cache_hierarchy.ruby_system.RequestType.LD.miss_latency_hist_seqr::bucket_size           64                       (Unspecified)
board.cache_hierarchy.ruby_system.RequestType.LD.miss_latency_hist_seqr::max_bucket          639                       (Unspecified)
board.cache_hierarchy.ruby_system.RequestType.LD.miss_latency_hist_seqr::samples      3045180                       (Unspecified)
board.cache_hierarchy.ruby_system.RequestType.LD.miss_latency_hist_seqr::mean    70.860456                       (Unspecified)
board.cache_hierarchy.ruby_system.RequestType.LD.miss_latency_hist_seqr::gmean    65.560795                       (Unspecified)
board.cache_hierarchy.ruby_system.RequestType.LD.miss_latency_hist_seqr::stdev    39.388203                       (Unspecified)
board.cache_hierarchy.ruby_system.RequestType.LD.miss_latency_hist_seqr |     2213332     72.68%     72.68% |      599483     19.69%     92.37% |      158470      5.20%     97.57% |       37020      1.22%     98.79% |       25265      0.83%     99.62% |        9965      0.33%     99.95% |         256      0.01%     99.95% |        1131      0.04%     99.99% |         258      0.01%    100.00% |           0      0.00%    100.00% (Unspecified)
board.cache_hierarchy.ruby_system.RequestType.LD.miss_latency_hist_seqr::total      3045180                       (Unspecified)
board.cache_hierarchy.ruby_system.RequestType.ST.latency_hist_seqr::bucket_size           64                       (Unspecified)
board.cache_hierarchy.ruby_system.RequestType.ST.latency_hist_seqr::max_bucket          639                       (Unspecified)
board.cache_hierarchy.ruby_system.RequestType.ST.latency_hist_seqr::samples     60845080                       (Unspecified)
board.cache_hierarchy.ruby_system.RequestType.ST.latency_hist_seqr::mean     8.738542                       (Unspecified)
board.cache_hierarchy.ruby_system.RequestType.ST.latency_hist_seqr::gmean     1.611885                       (Unspecified)
board.cache_hierarchy.ruby_system.RequestType.ST.latency_hist_seqr::stdev    25.286242                       (Unspecified)
board.cache_hierarchy.ruby_system.RequestType.ST.latency_hist_seqr |    59897459     98.44%     98.44% |      412272      0.68%     99.12% |      352800      0.58%     99.70% |       95632      0.16%     99.86% |       63069      0.10%     99.96% |       19164      0.03%     99.99% |         513      0.00%     99.99% |        3127      0.01%    100.00% |        1044      0.00%    100.00% |           0      0.00%    100.00% (Unspecified)
board.cache_hierarchy.ruby_system.RequestType.ST.latency_hist_seqr::total     60845080                       (Unspecified)
board.cache_hierarchy.ruby_system.RequestType.ST.hit_latency_hist_seqr::bucket_size            1                       (Unspecified)
board.cache_hierarchy.ruby_system.RequestType.ST.hit_latency_hist_seqr::max_bucket            9                       (Unspecified)
board.cache_hierarchy.ruby_system.RequestType.ST.hit_latency_hist_seqr::samples     53839785                       (Unspecified)
board.cache_hierarchy.ruby_system.RequestType.ST.hit_latency_hist_seqr::mean            1                       (Unspecified)
board.cache_hierarchy.ruby_system.RequestType.ST.hit_latency_hist_seqr::gmean            1                       (Unspecified)
board.cache_hierarchy.ruby_system.RequestType.ST.hit_latency_hist_seqr |           0      0.00%      0.00% |    53839785    100.00%    100.00% |           0      0.00%    100.00% |           0      0.00%    100.00% |           0      0.00%    100.00% |           0      0.00%    100.00% |           0      0.00%    100.00% |           0      0.00%    100.00% |           0      0.00%    100.00% |           0      0.00%    100.00% (Unspecified)
board.cache_hierarchy.ruby_system.RequestType.ST.hit_latency_hist_seqr::total     53839785                       (Unspecified)
board.cache_hierarchy.ruby_system.RequestType.ST.miss_latency_hist_seqr::bucket_size           64                       (Unspecified)
board.cache_hierarchy.ruby_system.RequestType.ST.miss_latency_hist_seqr::max_bucket          639                       (Unspecified)
board.cache_hierarchy.ruby_system.RequestType.ST.miss_latency_hist_seqr::samples      7005295                       (Unspecified)
board.cache_hierarchy.ruby_system.RequestType.ST.miss_latency_hist_seqr::mean    68.213761                       (Unspecified)
board.cache_hierarchy.ruby_system.RequestType.ST.miss_latency_hist_seqr::gmean    63.214695                       (Unspecified)
board.cache_hierarchy.ruby_system.RequestType.ST.miss_latency_hist_seqr::stdev    39.445632                       (Unspecified)
board.cache_hierarchy.ruby_system.RequestType.ST.miss_latency_hist_seqr |     6057674     86.47%     86.47% |      412272      5.89%     92.36% |      352800      5.04%     97.39% |       95632      1.37%     98.76% |       63069      0.90%     99.66% |       19164      0.27%     99.93% |         513      0.01%     99.94% |        3127      0.04%     99.99% |        1044      0.01%    100.00% |           0      0.00%    100.00% (Unspecified)
board.cache_hierarchy.ruby_system.RequestType.ST.miss_latency_hist_seqr::total      7005295                       (Unspecified)
board.cache_hierarchy.ruby_system.RequestType.IFETCH.latency_hist_seqr::bucket_size           64                       (Unspecified)
board.cache_hierarchy.ruby_system.RequestType.IFETCH.latency_hist_seqr::max_bucket          639                       (Unspecified)
board.cache_hierarchy.ruby_system.RequestType.IFETCH.latency_hist_seqr::samples    267783152                       (Unspecified)
board.cache_hierarchy.ruby_system.RequestType.IFETCH.latency_hist_seqr::mean     1.418908                       (Unspecified)
board.cache_hierarchy.ruby_system.RequestType.IFETCH.latency_hist_seqr::gmean     1.024972                       (Unspecified)
board.cache_hierarchy.ruby_system.RequestType.IFETCH.latency_hist_seqr::stdev     6.211870                       (Unspecified)
board.cache_hierarchy.ruby_system.RequestType.IFETCH.latency_hist_seqr |   267208795     99.79%     99.79% |      458019      0.17%     99.96% |       83154      0.03%     99.99% |       15358      0.01%     99.99% |       12030      0.00%    100.00% |        5004      0.00%    100.00% |         250      0.00%    100.00% |         497      0.00%    100.00% |          45      0.00%    100.00% |           0      0.00%    100.00% (Unspecified)
board.cache_hierarchy.ruby_system.RequestType.IFETCH.latency_hist_seqr::total    267783152                       (Unspecified)
board.cache_hierarchy.ruby_system.RequestType.IFETCH.hit_latency_hist_seqr::bucket_size            1                       (Unspecified)
board.cache_hierarchy.ruby_system.RequestType.IFETCH.hit_latency_hist_seqr::max_bucket            9                       (Unspecified)
board.cache_hierarchy.ruby_system.RequestType.IFETCH.hit_latency_hist_seqr::samples    266211500                       (Unspecified)
board.cache_hierarchy.ruby_system.RequestType.IFETCH.hit_latency_hist_seqr::mean            1                       (Unspecified)
board.cache_hierarchy.ruby_system.RequestType.IFETCH.hit_latency_hist_seqr::gmean            1                       (Unspecified)
board.cache_hierarchy.ruby_system.RequestType.IFETCH.hit_latency_hist_seqr |           0      0.00%      0.00% |   266211500    100.00%    100.00% |           0      0.00%    100.00% |           0      0.00%    100.00% |           0      0.00%    100.00% |           0      0.00%    100.00% |           0      0.00%    100.00% |           0      0.00%    100.00% |           0      0.00%    100.00% |           0      0.00%    100.00% (Unspecified)
board.cache_hierarchy.ruby_system.RequestType.IFETCH.hit_latency_hist_seqr::total    266211500                       (Unspecified)
board.cache_hierarchy.ruby_system.RequestType.IFETCH.miss_latency_hist_seqr::bucket_size           64                       (Unspecified)
board.cache_hierarchy.ruby_system.RequestType.IFETCH.miss_latency_hist_seqr::max_bucket          639                       (Unspecified)
board.cache_hierarchy.ruby_system.RequestType.IFETCH.miss_latency_hist_seqr::samples      1571652                       (Unspecified)
board.cache_hierarchy.ruby_system.RequestType.IFETCH.miss_latency_hist_seqr::mean    72.374974                       (Unspecified)
board.cache_hierarchy.ruby_system.RequestType.IFETCH.miss_latency_hist_seqr::gmean    66.854109                       (Unspecified)
board.cache_hierarchy.ruby_system.RequestType.IFETCH.miss_latency_hist_seqr::stdev    38.860607                       (Unspecified)
board.cache_hierarchy.ruby_system.RequestType.IFETCH.miss_latency_hist_seqr |      997295     63.46%     63.46% |      458019     29.14%     92.60% |       83154      5.29%     97.89% |       15358      0.98%     98.87% |       12030      0.77%     99.63% |        5004      0.32%     99.95% |         250      0.02%     99.97% |         497      0.03%    100.00% |          45      0.00%    100.00% |           0      0.00%    100.00% (Unspecified)
board.cache_hierarchy.ruby_system.RequestType.IFETCH.miss_latency_hist_seqr::total      1571652                       (Unspecified)
board.cache_hierarchy.ruby_system.RequestType.Load_Linked.latency_hist_seqr::bucket_size           64                       (Unspecified)
board.cache_hierarchy.ruby_system.RequestType.Load_Linked.latency_hist_seqr::max_bucket          639                       (Unspecified)
board.cache_hierarchy.ruby_system.RequestType.Load_Linked.latency_hist_seqr::samples        99135                       (Unspecified)
board.cache_hierarchy.ruby_system.RequestType.Load_Linked.latency_hist_seqr::mean    17.913633                       (Unspecified)
board.cache_hierarchy.ruby_system.RequestType.Load_Linked.latency_hist_seqr::gmean     2.612794                       (Unspecified)
board.cache_hierarchy.ruby_system.RequestType.Load_Linked.latency_hist_seqr::stdev    36.873653                       (Unspecified)
board.cache_hierarchy.ruby_system.RequestType.Load_Linked.latency_hist_seqr |       88934     89.71%     89.71% |        8300      8.37%     98.08% |        1293      1.30%     99.39% |         304      0.31%     99.69% |         215      0.22%     99.91% |          79      0.08%     99.99% |           3      0.00%     99.99% |           7      0.01%    100.00% |           0      0.00%    100.00% |           0      0.00%    100.00% (Unspecified)
board.cache_hierarchy.ruby_system.RequestType.Load_Linked.latency_hist_seqr::total        99135                       (Unspecified)
board.cache_hierarchy.ruby_system.RequestType.Load_Linked.hit_latency_hist_seqr::bucket_size            1                       (Unspecified)
board.cache_hierarchy.ruby_system.RequestType.Load_Linked.hit_latency_hist_seqr::max_bucket            9                       (Unspecified)
board.cache_hierarchy.ruby_system.RequestType.Load_Linked.hit_latency_hist_seqr::samples        76722                       (Unspecified)
board.cache_hierarchy.ruby_system.RequestType.Load_Linked.hit_latency_hist_seqr::mean            1                       (Unspecified)
board.cache_hierarchy.ruby_system.RequestType.Load_Linked.hit_latency_hist_seqr::gmean            1                       (Unspecified)
board.cache_hierarchy.ruby_system.RequestType.Load_Linked.hit_latency_hist_seqr |           0      0.00%      0.00% |       76722    100.00%    100.00% |           0      0.00%    100.00% |           0      0.00%    100.00% |           0      0.00%    100.00% |           0      0.00%    100.00% |           0      0.00%    100.00% |           0      0.00%    100.00% |           0      0.00%    100.00% |           0      0.00%    100.00% (Unspecified)
board.cache_hierarchy.ruby_system.RequestType.Load_Linked.hit_latency_hist_seqr::total        76722                       (Unspecified)
board.cache_hierarchy.ruby_system.RequestType.Load_Linked.miss_latency_hist_seqr::bucket_size           64                       (Unspecified)
board.cache_hierarchy.ruby_system.RequestType.Load_Linked.miss_latency_hist_seqr::max_bucket          639                       (Unspecified)
board.cache_hierarchy.ruby_system.RequestType.Load_Linked.miss_latency_hist_seqr::samples        22413                       (Unspecified)
board.cache_hierarchy.ruby_system.RequestType.Load_Linked.miss_latency_hist_seqr::mean    75.810735                       (Unspecified)
board.cache_hierarchy.ruby_system.RequestType.Load_Linked.miss_latency_hist_seqr::gmean    69.967865                       (Unspecified)
board.cache_hierarchy.ruby_system.RequestType.Load_Linked.miss_latency_hist_seqr::stdev    41.019914                       (Unspecified)
board.cache_hierarchy.ruby_system.RequestType.Load_Linked.miss_latency_hist_seqr |       12212     54.49%     54.49% |        8300     37.03%     91.52% |        1293      5.77%     97.29% |         304      1.36%     98.64% |         215      0.96%     99.60% |          79      0.35%     99.96% |           3      0.01%     99.97% |           7      0.03%    100.00% |           0      0.00%    100.00% |           0      0.00%    100.00% (Unspecified)
board.cache_hierarchy.ruby_system.RequestType.Load_Linked.miss_latency_hist_seqr::total        22413                       (Unspecified)
board.cache_hierarchy.ruby_system.RequestType.Store_Conditional.latency_hist_seqr::bucket_size            1                       (Unspecified)
board.cache_hierarchy.ruby_system.RequestType.Store_Conditional.latency_hist_seqr::max_bucket            9                       (Unspecified)
board.cache_hierarchy.ruby_system.RequestType.Store_Conditional.latency_hist_seqr::samples        98972                       (Unspecified)
board.cache_hierarchy.ruby_system.RequestType.Store_Conditional.latency_hist_seqr::mean            1                       (Unspecified)
board.cache_hierarchy.ruby_system.RequestType.Store_Conditional.latency_hist_seqr::gmean            1                       (Unspecified)
board.cache_hierarchy.ruby_system.RequestType.Store_Conditional.latency_hist_seqr |           0      0.00%      0.00% |       98972    100.00%    100.00% |           0      0.00%    100.00% |           0      0.00%    100.00% |           0      0.00%    100.00% |           0      0.00%    100.00% |           0      0.00%    100.00% |           0      0.00%    100.00% |           0      0.00%    100.00% |           0      0.00%    100.00% (Unspecified)
board.cache_hierarchy.ruby_system.RequestType.Store_Conditional.latency_hist_seqr::total        98972                       (Unspecified)
board.cache_hierarchy.ruby_system.RequestType.Store_Conditional.hit_latency_hist_seqr::bucket_size            1                       (Unspecified)
board.cache_hierarchy.ruby_system.RequestType.Store_Conditional.hit_latency_hist_seqr::max_bucket            9                       (Unspecified)
board.cache_hierarchy.ruby_system.RequestType.Store_Conditional.hit_latency_hist_seqr::samples        98972                       (Unspecified)
board.cache_hierarchy.ruby_system.RequestType.Store_Conditional.hit_latency_hist_seqr::mean            1                       (Unspecified)
board.cache_hierarchy.ruby_system.RequestType.Store_Conditional.hit_latency_hist_seqr::gmean            1                       (Unspecified)
board.cache_hierarchy.ruby_system.RequestType.Store_Conditional.hit_latency_hist_seqr |           0      0.00%      0.00% |       98972    100.00%    100.00% |           0      0.00%    100.00% |           0      0.00%    100.00% |           0      0.00%    100.00% |           0      0.00%    100.00% |           0      0.00%    100.00% |           0      0.00%    100.00% |           0      0.00%    100.00% |           0      0.00%    100.00% (Unspecified)
board.cache_hierarchy.ruby_system.RequestType.Store_Conditional.hit_latency_hist_seqr::total        98972                       (Unspecified)
board.cache_hierarchy.ruby_system.RequestTypeMachineType.LD.Directory.miss_type_mach_latency_hist_seqr::bucket_size           64                       (Unspecified)
board.cache_hierarchy.ruby_system.RequestTypeMachineType.LD.Directory.miss_type_mach_latency_hist_seqr::max_bucket          639                       (Unspecified)
board.cache_hierarchy.ruby_system.RequestTypeMachineType.LD.Directory.miss_type_mach_latency_hist_seqr::samples      3045180                       (Unspecified)
board.cache_hierarchy.ruby_system.RequestTypeMachineType.LD.Directory.miss_type_mach_latency_hist_seqr::mean    70.860456                       (Unspecified)
board.cache_hierarchy.ruby_system.RequestTypeMachineType.LD.Directory.miss_type_mach_latency_hist_seqr::gmean    65.560795                       (Unspecified)
board.cache_hierarchy.ruby_system.RequestTypeMachineType.LD.Directory.miss_type_mach_latency_hist_seqr::stdev    39.388203                       (Unspecified)
board.cache_hierarchy.ruby_system.RequestTypeMachineType.LD.Directory.miss_type_mach_latency_hist_seqr |     2213332     72.68%     72.68% |      599483     19.69%     92.37% |      158470      5.20%     97.57% |       37020      1.22%     98.79% |       25265      0.83%     99.62% |        9965      0.33%     99.95% |         256      0.01%     99.95% |        1131      0.04%     99.99% |         258      0.01%    100.00% |           0      0.00%    100.00% (Unspecified)
board.cache_hierarchy.ruby_system.RequestTypeMachineType.LD.Directory.miss_type_mach_latency_hist_seqr::total      3045180                       (Unspecified)
board.cache_hierarchy.ruby_system.RequestTypeMachineType.ST.Directory.miss_type_mach_latency_hist_seqr::bucket_size           64                       (Unspecified)
board.cache_hierarchy.ruby_system.RequestTypeMachineType.ST.Directory.miss_type_mach_latency_hist_seqr::max_bucket          639                       (Unspecified)
board.cache_hierarchy.ruby_system.RequestTypeMachineType.ST.Directory.miss_type_mach_latency_hist_seqr::samples      7005295                       (Unspecified)
board.cache_hierarchy.ruby_system.RequestTypeMachineType.ST.Directory.miss_type_mach_latency_hist_seqr::mean    68.213761                       (Unspecified)
board.cache_hierarchy.ruby_system.RequestTypeMachineType.ST.Directory.miss_type_mach_latency_hist_seqr::gmean    63.214695                       (Unspecified)
board.cache_hierarchy.ruby_system.RequestTypeMachineType.ST.Directory.miss_type_mach_latency_hist_seqr::stdev    39.445632                       (Unspecified)
board.cache_hierarchy.ruby_system.RequestTypeMachineType.ST.Directory.miss_type_mach_latency_hist_seqr |     6057674     86.47%     86.47% |      412272      5.89%     92.36% |      352800      5.04%     97.39% |       95632      1.37%     98.76% |       63069      0.90%     99.66% |       19164      0.27%     99.93% |         513      0.01%     99.94% |        3127      0.04%     99.99% |        1044      0.01%    100.00% |           0      0.00%    100.00% (Unspecified)
board.cache_hierarchy.ruby_system.RequestTypeMachineType.ST.Directory.miss_type_mach_latency_hist_seqr::total      7005295                       (Unspecified)
board.cache_hierarchy.ruby_system.RequestTypeMachineType.IFETCH.Directory.miss_type_mach_latency_hist_seqr::bucket_size           64                       (Unspecified)
board.cache_hierarchy.ruby_system.RequestTypeMachineType.IFETCH.Directory.miss_type_mach_latency_hist_seqr::max_bucket          639                       (Unspecified)
board.cache_hierarchy.ruby_system.RequestTypeMachineType.IFETCH.Directory.miss_type_mach_latency_hist_seqr::samples      1571652                       (Unspecified)
board.cache_hierarchy.ruby_system.RequestTypeMachineType.IFETCH.Directory.miss_type_mach_latency_hist_seqr::mean    72.374974                       (Unspecified)
board.cache_hierarchy.ruby_system.RequestTypeMachineType.IFETCH.Directory.miss_type_mach_latency_hist_seqr::gmean    66.854109                       (Unspecified)
board.cache_hierarchy.ruby_system.RequestTypeMachineType.IFETCH.Directory.miss_type_mach_latency_hist_seqr::stdev    38.860607                       (Unspecified)
board.cache_hierarchy.ruby_system.RequestTypeMachineType.IFETCH.Directory.miss_type_mach_latency_hist_seqr |      997295     63.46%     63.46% |      458019     29.14%     92.60% |       83154      5.29%     97.89% |       15358      0.98%     98.87% |       12030      0.77%     99.63% |        5004      0.32%     99.95% |         250      0.02%     99.97% |         497      0.03%    100.00% |          45      0.00%    100.00% |           0      0.00%    100.00% (Unspecified)
board.cache_hierarchy.ruby_system.RequestTypeMachineType.IFETCH.Directory.miss_type_mach_latency_hist_seqr::total      1571652                       (Unspecified)
board.cache_hierarchy.ruby_system.RequestTypeMachineType.Load_Linked.Directory.miss_type_mach_latency_hist_seqr::bucket_size           64                       (Unspecified)
board.cache_hierarchy.ruby_system.RequestTypeMachineType.Load_Linked.Directory.miss_type_mach_latency_hist_seqr::max_bucket          639                       (Unspecified)
board.cache_hierarchy.ruby_system.RequestTypeMachineType.Load_Linked.Directory.miss_type_mach_latency_hist_seqr::samples        22413                       (Unspecified)
board.cache_hierarchy.ruby_system.RequestTypeMachineType.Load_Linked.Directory.miss_type_mach_latency_hist_seqr::mean    75.810735                       (Unspecified)
board.cache_hierarchy.ruby_system.RequestTypeMachineType.Load_Linked.Directory.miss_type_mach_latency_hist_seqr::gmean    69.967865                       (Unspecified)
board.cache_hierarchy.ruby_system.RequestTypeMachineType.Load_Linked.Directory.miss_type_mach_latency_hist_seqr::stdev    41.019914                       (Unspecified)
board.cache_hierarchy.ruby_system.RequestTypeMachineType.Load_Linked.Directory.miss_type_mach_latency_hist_seqr |       12212     54.49%     54.49% |        8300     37.03%     91.52% |        1293      5.77%     97.29% |         304      1.36%     98.64% |         215      0.96%     99.60% |          79      0.35%     99.96% |           3      0.01%     99.97% |           7      0.03%    100.00% |           0      0.00%    100.00% |           0      0.00%    100.00% (Unspecified)
board.cache_hierarchy.ruby_system.RequestTypeMachineType.Load_Linked.Directory.miss_type_mach_latency_hist_seqr::total        22413                       (Unspecified)
board.cache_hierarchy.ruby_system.controllers.delayHistogram::samples     23288568                       # delay_histogram (Unspecified)
board.cache_hierarchy.ruby_system.controllers.delayHistogram::0     23288568    100.00%    100.00% # delay_histogram (Unspecified)
board.cache_hierarchy.ruby_system.controllers.delayHistogram::total     23288568                       # delay_histogram (Unspecified)
board.cache_hierarchy.ruby_system.controllers.cacheMemory.m_demand_hits    353298942                       # Number of cache demand hits (Unspecified)
board.cache_hierarchy.ruby_system.controllers.cacheMemory.m_demand_misses     11644540                       # Number of cache demand misses (Unspecified)
board.cache_hierarchy.ruby_system.controllers.cacheMemory.m_demand_accesses    364943482                       # Number of cache demand accesses (Unspecified)
board.cache_hierarchy.ruby_system.controllers.forwardToCache.m_msg_count     11644028                       # Number of messages passed the buffer (Count)
board.cache_hierarchy.ruby_system.controllers.forwardToCache.m_buf_msgs     0.007596                       # Average number of messages in buffer ((Count/Tick))
board.cache_hierarchy.ruby_system.controllers.mandatoryQueue.m_msg_count    364943482                       # Number of messages passed the buffer (Count)
board.cache_hierarchy.ruby_system.controllers.mandatoryQueue.m_buf_msgs     0.238145                       # Average number of messages in buffer ((Count/Tick))
board.cache_hierarchy.ruby_system.controllers.power_state.pwrStateResidencyTicks::UNDEFINED 1532960921000                       # Cumulative time (in ticks) in various power states (Tick)
board.cache_hierarchy.ruby_system.controllers.requestFromCache.m_msg_count     23288568                       # Number of messages passed the buffer (Count)
board.cache_hierarchy.ruby_system.controllers.requestFromCache.m_buf_msgs     0.030384                       # Average number of messages in buffer ((Count/Tick))
board.cache_hierarchy.ruby_system.controllers.responseToCache.m_msg_count     11644540                       # Number of messages passed the buffer (Count)
board.cache_hierarchy.ruby_system.controllers.responseToCache.m_buf_msgs     0.007596                       # Average number of messages in buffer ((Count/Tick))
board.cache_hierarchy.ruby_system.controllers.sequencer.power_state.pwrStateResidencyTicks::UNDEFINED 1532960921000                       # Cumulative time (in ticks) in various power states (Tick)
board.cache_hierarchy.ruby_system.directory_controllers.forwardFromDir.m_msg_count     11644028                       # Number of messages passed the buffer (Count)
board.cache_hierarchy.ruby_system.directory_controllers.forwardFromDir.m_buf_msgs     0.007596                       # Average number of messages in buffer ((Count/Tick))
board.cache_hierarchy.ruby_system.directory_controllers.power_state.pwrStateResidencyTicks::UNDEFINED 1532960921000                       # Cumulative time (in ticks) in various power states (Tick)
board.cache_hierarchy.ruby_system.directory_controllers.requestToDir.m_msg_count     23288568                       # Number of messages passed the buffer (Count)
board.cache_hierarchy.ruby_system.directory_controllers.requestToDir.m_buf_msgs     0.015192                       # Average number of messages in buffer ((Count/Tick))
board.cache_hierarchy.ruby_system.directory_controllers.requestToMemory.m_msg_count     23288568                       # Number of messages passed the buffer (Count)
board.cache_hierarchy.ruby_system.directory_controllers.requestToMemory.m_buf_msgs     0.015192                       # Average number of messages in buffer ((Count/Tick))
board.cache_hierarchy.ruby_system.directory_controllers.responseFromDir.m_msg_count     11644540                       # Number of messages passed the buffer (Count)
board.cache_hierarchy.ruby_system.directory_controllers.responseFromDir.m_buf_msgs     0.007596                       # Average number of messages in buffer ((Count/Tick))
board.cache_hierarchy.ruby_system.directory_controllers.responseFromMemory.m_msg_count     23288568                       # Number of messages passed the buffer (Count)
board.cache_hierarchy.ruby_system.directory_controllers.responseFromMemory.m_buf_msgs     0.017452                       # Average number of messages in buffer ((Count/Tick))
board.cache_hierarchy.ruby_system.network.msg_count.Control     23289080                       (Unspecified)
board.cache_hierarchy.ruby_system.network.msg_byte.Control    186312640                       (Unspecified)
board.cache_hierarchy.ruby_system.network.msg_count.Data     23288056                       (Unspecified)
board.cache_hierarchy.ruby_system.network.msg_byte.Data   1676740032                       (Unspecified)
board.cache_hierarchy.ruby_system.network.msg_count.Response_Data     23289080                       (Unspecified)
board.cache_hierarchy.ruby_system.network.msg_byte.Response_Data   1676813760                       (Unspecified)
board.cache_hierarchy.ruby_system.network.msg_count.Writeback_Control     23288056                       (Unspecified)
board.cache_hierarchy.ruby_system.network.msg_byte.Writeback_Control    186304448                       (Unspecified)
board.cache_hierarchy.ruby_system.network.int_links0.buffers2.m_msg_count     23288568                       # Number of messages passed the buffer (Count)
board.cache_hierarchy.ruby_system.network.int_links0.buffers2.m_buf_msgs     0.015192                       # Average number of messages in buffer ((Count/Tick))
board.cache_hierarchy.ruby_system.network.int_links1.buffers3.m_msg_count     11644028                       # Number of messages passed the buffer (Count)
board.cache_hierarchy.ruby_system.network.int_links1.buffers3.m_buf_msgs     0.007596                       # Average number of messages in buffer ((Count/Tick))
board.cache_hierarchy.ruby_system.network.int_links1.buffers4.m_msg_count     11644540                       # Number of messages passed the buffer (Count)
board.cache_hierarchy.ruby_system.network.int_links1.buffers4.m_buf_msgs     0.007596                       # Average number of messages in buffer ((Count/Tick))
board.cache_hierarchy.ruby_system.network.power_state.pwrStateResidencyTicks::UNDEFINED 1532960921000                       # Cumulative time (in ticks) in various power states (Tick)
board.cache_hierarchy.ruby_system.network.routers0.percent_links_utilized     3.797972                       (Unspecified)
board.cache_hierarchy.ruby_system.network.routers0.msg_count.Control::2     11644540                       (Unspecified)
board.cache_hierarchy.ruby_system.network.routers0.msg_bytes.Control::2     93156320                       (Unspecified)
board.cache_hierarchy.ruby_system.network.routers0.msg_count.Data::2     11644028                       (Unspecified)
board.cache_hierarchy.ruby_system.network.routers0.msg_bytes.Data::2    838370016                       (Unspecified)
board.cache_hierarchy.ruby_system.network.routers0.msg_count.Response_Data::4     11644540                       (Unspecified)
board.cache_hierarchy.ruby_system.network.routers0.msg_bytes.Response_Data::4    838406880                       (Unspecified)
board.cache_hierarchy.ruby_system.network.routers0.msg_count.Writeback_Control::3     11644028                       (Unspecified)
board.cache_hierarchy.ruby_system.network.routers0.msg_bytes.Writeback_Control::3     93152224                       (Unspecified)
board.cache_hierarchy.ruby_system.network.routers0.port_buffers3.m_msg_count     11644028                       # Number of messages passed the buffer (Count)
board.cache_hierarchy.ruby_system.network.routers0.port_buffers3.m_buf_msgs     0.007596                       # Average number of messages in buffer ((Count/Tick))
board.cache_hierarchy.ruby_system.network.routers0.port_buffers4.m_msg_count     11644540                       # Number of messages passed the buffer (Count)
board.cache_hierarchy.ruby_system.network.routers0.port_buffers4.m_buf_msgs     0.007596                       # Average number of messages in buffer ((Count/Tick))
board.cache_hierarchy.ruby_system.network.routers0.port_buffers7.m_msg_count     23288568                       # Number of messages passed the buffer (Count)
board.cache_hierarchy.ruby_system.network.routers0.port_buffers7.m_buf_msgs     0.045575                       # Average number of messages in buffer ((Count/Tick))
board.cache_hierarchy.ruby_system.network.routers0.port_buffers7.m_stall_time  46576112000                       # Total number of ticks messages were stalled in this buffer (Tick)
board.cache_hierarchy.ruby_system.network.routers0.port_buffers7.m_avg_stall_time  1999.956030                       # Average stall ticks per message ((Tick/Count))
board.cache_hierarchy.ruby_system.network.routers0.power_state.pwrStateResidencyTicks::UNDEFINED 1532960921000                       # Cumulative time (in ticks) in various power states (Tick)
board.cache_hierarchy.ruby_system.network.routers0.throttle00.acc_link_utilization     58222444                       # Accumulated link utilization (Count)
board.cache_hierarchy.ruby_system.network.routers0.throttle00.link_utilization     3.798038                       # Average link utilization (Ratio)
board.cache_hierarchy.ruby_system.network.routers0.throttle00.total_msg_count     23288568                       # Total number of messages forwarded by this switch (Count)
board.cache_hierarchy.ruby_system.network.routers0.throttle00.total_msg_bytes    931559104                       # Total number of bytes forwarded by this switch (Byte)
board.cache_hierarchy.ruby_system.network.routers0.throttle00.total_data_msg_bytes    745250560                       # Total number of data bytes forwarded by this switch (Byte)
board.cache_hierarchy.ruby_system.network.routers0.throttle00.total_msg_wait_time            0                       # Total time spend forwarding messages (Tick)
board.cache_hierarchy.ruby_system.network.routers0.throttle00.total_stall_cy            0                       # Total time spent blocked on any output link (Cycle)
board.cache_hierarchy.ruby_system.network.routers0.throttle00.total_bw_sat_cy     46578160                       # Total time bandwidth was saturated on any output link (Cycle)
board.cache_hierarchy.ruby_system.network.routers0.throttle00.avg_msg_wait_time            0                       # Average time a message took to be forwarded (Ratio)
board.cache_hierarchy.ruby_system.network.routers0.throttle00.avg_bandwidth         0.57                       # Average bandwidth (GB/s) (Ratio)
board.cache_hierarchy.ruby_system.network.routers0.throttle00.avg_useful_bandwidth         0.45                       # Average usefull (only data) bandwidth (GB/s) (Ratio)
board.cache_hierarchy.ruby_system.network.routers0.throttle00.msg_count.Response_Data::4     11644540                       (Unspecified)
board.cache_hierarchy.ruby_system.network.routers0.throttle00.msg_bytes.Response_Data::4    838406880                       (Unspecified)
board.cache_hierarchy.ruby_system.network.routers0.throttle00.msg_count.Writeback_Control::3     11644028                       (Unspecified)
board.cache_hierarchy.ruby_system.network.routers0.throttle00.msg_bytes.Writeback_Control::3     93152224                       (Unspecified)
board.cache_hierarchy.ruby_system.network.routers0.throttle01.acc_link_utilization     58220396                       # Accumulated link utilization (Count)
board.cache_hierarchy.ruby_system.network.routers0.throttle01.link_utilization     3.797905                       # Average link utilization (Ratio)
board.cache_hierarchy.ruby_system.network.routers0.throttle01.total_msg_count     23288568                       # Total number of messages forwarded by this switch (Count)
board.cache_hierarchy.ruby_system.network.routers0.throttle01.total_msg_bytes    931526336                       # Total number of bytes forwarded by this switch (Byte)
board.cache_hierarchy.ruby_system.network.routers0.throttle01.total_data_msg_bytes    745217792                       # Total number of data bytes forwarded by this switch (Byte)
board.cache_hierarchy.ruby_system.network.routers0.throttle01.total_msg_wait_time  46576112000                       # Total time spend forwarding messages (Tick)
board.cache_hierarchy.ruby_system.network.routers0.throttle01.total_stall_cy            0                       # Total time spent blocked on any output link (Cycle)
board.cache_hierarchy.ruby_system.network.routers0.throttle01.total_bw_sat_cy     46576112                       # Total time bandwidth was saturated on any output link (Cycle)
board.cache_hierarchy.ruby_system.network.routers0.throttle01.avg_msg_wait_time  1999.956030                       # Average time a message took to be forwarded (Ratio)
board.cache_hierarchy.ruby_system.network.routers0.throttle01.avg_bandwidth         0.57                       # Average bandwidth (GB/s) (Ratio)
board.cache_hierarchy.ruby_system.network.routers0.throttle01.avg_useful_bandwidth         0.45                       # Average usefull (only data) bandwidth (GB/s) (Ratio)
board.cache_hierarchy.ruby_system.network.routers0.throttle01.msg_count.Control::2     11644540                       (Unspecified)
board.cache_hierarchy.ruby_system.network.routers0.throttle01.msg_bytes.Control::2     93156320                       (Unspecified)
board.cache_hierarchy.ruby_system.network.routers0.throttle01.msg_count.Data::2     11644028                       (Unspecified)
board.cache_hierarchy.ruby_system.network.routers0.throttle01.msg_bytes.Data::2    838370016                       (Unspecified)
board.cache_hierarchy.ruby_system.network.routers1.percent_links_utilized     3.797972                       (Unspecified)
board.cache_hierarchy.ruby_system.network.routers1.msg_count.Control::2     11644540                       (Unspecified)
board.cache_hierarchy.ruby_system.network.routers1.msg_bytes.Control::2     93156320                       (Unspecified)
board.cache_hierarchy.ruby_system.network.routers1.msg_count.Data::2     11644028                       (Unspecified)
board.cache_hierarchy.ruby_system.network.routers1.msg_bytes.Data::2    838370016                       (Unspecified)
board.cache_hierarchy.ruby_system.network.routers1.msg_count.Response_Data::4     11644540                       (Unspecified)
board.cache_hierarchy.ruby_system.network.routers1.msg_bytes.Response_Data::4    838406880                       (Unspecified)
board.cache_hierarchy.ruby_system.network.routers1.msg_count.Writeback_Control::3     11644028                       (Unspecified)
board.cache_hierarchy.ruby_system.network.routers1.msg_bytes.Writeback_Control::3     93152224                       (Unspecified)
board.cache_hierarchy.ruby_system.network.routers1.port_buffers2.m_msg_count     23288568                       # Number of messages passed the buffer (Count)
board.cache_hierarchy.ruby_system.network.routers1.port_buffers2.m_buf_msgs     0.015192                       # Average number of messages in buffer ((Count/Tick))
board.cache_hierarchy.ruby_system.network.routers1.port_buffers8.m_msg_count     11644028                       # Number of messages passed the buffer (Count)
board.cache_hierarchy.ruby_system.network.routers1.port_buffers8.m_buf_msgs     0.007596                       # Average number of messages in buffer ((Count/Tick))
board.cache_hierarchy.ruby_system.network.routers1.port_buffers9.m_msg_count     11644540                       # Number of messages passed the buffer (Count)
board.cache_hierarchy.ruby_system.network.routers1.port_buffers9.m_buf_msgs     0.007596                       # Average number of messages in buffer ((Count/Tick))
board.cache_hierarchy.ruby_system.network.routers1.power_state.pwrStateResidencyTicks::UNDEFINED 1532960921000                       # Cumulative time (in ticks) in various power states (Tick)
board.cache_hierarchy.ruby_system.network.routers1.throttle00.acc_link_utilization     58220396                       # Accumulated link utilization (Count)
board.cache_hierarchy.ruby_system.network.routers1.throttle00.link_utilization     3.797905                       # Average link utilization (Ratio)
board.cache_hierarchy.ruby_system.network.routers1.throttle00.total_msg_count     23288568                       # Total number of messages forwarded by this switch (Count)
board.cache_hierarchy.ruby_system.network.routers1.throttle00.total_msg_bytes    931526336                       # Total number of bytes forwarded by this switch (Byte)
board.cache_hierarchy.ruby_system.network.routers1.throttle00.total_data_msg_bytes    745217792                       # Total number of data bytes forwarded by this switch (Byte)
board.cache_hierarchy.ruby_system.network.routers1.throttle00.total_msg_wait_time            0                       # Total time spend forwarding messages (Tick)
board.cache_hierarchy.ruby_system.network.routers1.throttle00.total_stall_cy            0                       # Total time spent blocked on any output link (Cycle)
board.cache_hierarchy.ruby_system.network.routers1.throttle00.total_bw_sat_cy     46576112                       # Total time bandwidth was saturated on any output link (Cycle)
board.cache_hierarchy.ruby_system.network.routers1.throttle00.avg_msg_wait_time            0                       # Average time a message took to be forwarded (Ratio)
board.cache_hierarchy.ruby_system.network.routers1.throttle00.avg_bandwidth         0.57                       # Average bandwidth (GB/s) (Ratio)
board.cache_hierarchy.ruby_system.network.routers1.throttle00.avg_useful_bandwidth         0.45                       # Average usefull (only data) bandwidth (GB/s) (Ratio)
board.cache_hierarchy.ruby_system.network.routers1.throttle00.msg_count.Control::2     11644540                       (Unspecified)
board.cache_hierarchy.ruby_system.network.routers1.throttle00.msg_bytes.Control::2     93156320                       (Unspecified)
board.cache_hierarchy.ruby_system.network.routers1.throttle00.msg_count.Data::2     11644028                       (Unspecified)
board.cache_hierarchy.ruby_system.network.routers1.throttle00.msg_bytes.Data::2    838370016                       (Unspecified)
board.cache_hierarchy.ruby_system.network.routers1.throttle01.acc_link_utilization     58222444                       # Accumulated link utilization (Count)
board.cache_hierarchy.ruby_system.network.routers1.throttle01.link_utilization     3.798038                       # Average link utilization (Ratio)
board.cache_hierarchy.ruby_system.network.routers1.throttle01.total_msg_count     23288568                       # Total number of messages forwarded by this switch (Count)
board.cache_hierarchy.ruby_system.network.routers1.throttle01.total_msg_bytes    931559104                       # Total number of bytes forwarded by this switch (Byte)
board.cache_hierarchy.ruby_system.network.routers1.throttle01.total_data_msg_bytes    745250560                       # Total number of data bytes forwarded by this switch (Byte)
board.cache_hierarchy.ruby_system.network.routers1.throttle01.total_msg_wait_time            0                       # Total time spend forwarding messages (Tick)
board.cache_hierarchy.ruby_system.network.routers1.throttle01.total_stall_cy            0                       # Total time spent blocked on any output link (Cycle)
board.cache_hierarchy.ruby_system.network.routers1.throttle01.total_bw_sat_cy     46578160                       # Total time bandwidth was saturated on any output link (Cycle)
board.cache_hierarchy.ruby_system.network.routers1.throttle01.avg_msg_wait_time            0                       # Average time a message took to be forwarded (Ratio)
board.cache_hierarchy.ruby_system.network.routers1.throttle01.avg_bandwidth         0.57                       # Average bandwidth (GB/s) (Ratio)
board.cache_hierarchy.ruby_system.network.routers1.throttle01.avg_useful_bandwidth         0.45                       # Average usefull (only data) bandwidth (GB/s) (Ratio)
board.cache_hierarchy.ruby_system.network.routers1.throttle01.msg_count.Response_Data::4     11644540                       (Unspecified)
board.cache_hierarchy.ruby_system.network.routers1.throttle01.msg_bytes.Response_Data::4    838406880                       (Unspecified)
board.cache_hierarchy.ruby_system.network.routers1.throttle01.msg_count.Writeback_Control::3     11644028                       (Unspecified)
board.cache_hierarchy.ruby_system.network.routers1.throttle01.msg_bytes.Writeback_Control::3     93152224                       (Unspecified)
board.cache_hierarchy.ruby_system.power_state.pwrStateResidencyTicks::UNDEFINED 1532960921000                       # Cumulative time (in ticks) in various power states (Tick)
board.cache_hierarchy.ruby_system.sys_port_proxy.power_state.pwrStateResidencyTicks::UNDEFINED 1532960921000                       # Cumulative time (in ticks) in various power states (Tick)
board.clk_domain.clock                           1000                       # Clock period in ticks (Tick)
board.clk_domain.voltage_domain.voltage             1                       # Voltage in Volts (Volt)
board.disk.power_state.pwrStateResidencyTicks::UNDEFINED 1532960921000                       # Cumulative time (in ticks) in various power states (Tick)
board.ethernet.EtherDevice.postedInterrupts            0                       # Number of posts to CPU (Count)
board.ethernet.EtherDevice.descDmaReads             0                       # Number of descriptors the device read w/ DMA (Count)
board.ethernet.EtherDevice.descDmaWrites            0                       # Number of descriptors the device wrote w/ DMA (Count)
board.ethernet.EtherDevice.descDmaRdBytes            0                       # Number of descriptor bytes read w/ DMA (Count)
board.ethernet.EtherDevice.descDmaWrBytes            0                       # Number of descriptor bytes write w/ DMA (Count)
board.ethernet.EtherDevice.postedSwi                0                       # Number of software interrupts posted to CPU (Count)
board.ethernet.EtherDevice.totalSwi                 0                       # Total number of Swi written to ISR (Count)
board.ethernet.EtherDevice.coalescedSwi           nan                       # Average number of Swi's coalesced into each post ((Count/Count))
board.ethernet.EtherDevice.postedRxIdle             0                       # Number of rxIdle interrupts posted to CPU (Count)
board.ethernet.EtherDevice.totalRxIdle              0                       # Total number of RxIdle written to ISR (Count)
board.ethernet.EtherDevice.coalescedRxIdle          nan                       # Average number of RxIdle's coalesced into each post ((Count/Count))
board.ethernet.EtherDevice.postedRxOk               0                       # Number of RxOk interrupts posted to CPU (Count)
board.ethernet.EtherDevice.totalRxOk                0                       # Total number of RxOk written to ISR (Count)
board.ethernet.EtherDevice.coalescedRxOk          nan                       # Average number of RxOk's coalesced into each post ((Count/Count))
board.ethernet.EtherDevice.postedRxDesc             0                       # Number of RxDesc interrupts posted to CPU (Count)
board.ethernet.EtherDevice.totalRxDesc              0                       # Total number of RxDesc written to ISR (Count)
board.ethernet.EtherDevice.coalescedRxDesc          nan                       # Average number of RxDesc's coalesced into each post ((Count/Count))
board.ethernet.EtherDevice.postedTxOk               0                       # Number of TxOk interrupts posted to CPU (Count)
board.ethernet.EtherDevice.totalTxOk                0                       # Total number of TxOk written to ISR (Count)
board.ethernet.EtherDevice.coalescedTxOk          nan                       # Average number of TxOk's coalesced into each post ((Count/Count))
board.ethernet.EtherDevice.postedTxIdle             0                       # Number of TxIdle interrupts posted to CPU (Count)
board.ethernet.EtherDevice.totalTxIdle              0                       # Total number of TxIdle written to ISR (Count)
board.ethernet.EtherDevice.coalescedTxIdle          nan                       # Average number of TxIdle's coalesced into each post ((Count/Count))
board.ethernet.EtherDevice.postedTxDesc             0                       # Number of TxDesc interrupts posted to CPU (Count)
board.ethernet.EtherDevice.totalTxDesc              0                       # Total number of TxDesc written to ISR (Count)
board.ethernet.EtherDevice.coalescedTxDesc          nan                       # Average number of TxDesc's coalesced into each post ((Count/Count))
board.ethernet.EtherDevice.postedRxOrn              0                       # Number of RxOrn posted to CPU (Count)
board.ethernet.EtherDevice.totalRxOrn               0                       # Total number of RxOrn written to ISR (Count)
board.ethernet.EtherDevice.coalescedRxOrn          nan                       # Average number of RxOrn's coalesced into each post ((Count/Count))
board.ethernet.EtherDevice.coalescedTotal          nan                       # Average number of interrupts coalesced into each post ((Count/Count))
board.ethernet.EtherDevice.droppedPackets            0                       # Number of packets dropped (Count)
board.ethernet.power_state.pwrStateResidencyTicks::UNDEFINED 1532960921000                       # Cumulative time (in ticks) in various power states (Tick)
board.iobus.transDist::ReadReq                   9258                       # Transaction distribution (Count)
board.iobus.transDist::ReadResp                  9258                       # Transaction distribution (Count)
board.iobus.transDist::WriteReq                  8613                       # Transaction distribution (Count)
board.iobus.transDist::WriteResp                 8613                       # Transaction distribution (Count)
board.iobus.transDist::SwapReq                    609                       # Transaction distribution (Count)
board.iobus.transDist::SwapResp                   609                       # Transaction distribution (Count)
board.iobus.pktCount_board.cache_hierarchy.ruby_system.controllers.sequencer.mem-request-port::board.platform.uart.pio        30204                       # Packet count per connected requestor and responder (Count)
board.iobus.pktCount_board.cache_hierarchy.ruby_system.controllers.sequencer.mem-request-port::board.disk.pio          718                       # Packet count per connected requestor and responder (Count)
board.iobus.pktCount_board.cache_hierarchy.ruby_system.controllers.sequencer.mem-request-port::board.rng.pio           16                       # Packet count per connected requestor and responder (Count)
board.iobus.pktCount_board.cache_hierarchy.ruby_system.controllers.sequencer.mem-request-port::board.platform.clint.pio         5120                       # Packet count per connected requestor and responder (Count)
board.iobus.pktCount_board.cache_hierarchy.ruby_system.controllers.sequencer.mem-request-port::board.platform.plic.pio          902                       # Packet count per connected requestor and responder (Count)
board.iobus.pktCount_board.cache_hierarchy.ruby_system.controllers.sequencer.mem-request-port::total        36960                       # Packet count per connected requestor and responder (Count)
board.iobus.pktCount::total                     36960                       # Packet count per connected requestor and responder (Count)
board.iobus.pktSize_board.cache_hierarchy.ruby_system.controllers.sequencer.mem-request-port::board.platform.uart.pio        15102                       # Cumulative packet size per connected requestor and responder (Byte)
board.iobus.pktSize_board.cache_hierarchy.ruby_system.controllers.sequencer.mem-request-port::board.disk.pio         1412                       # Cumulative packet size per connected requestor and responder (Byte)
board.iobus.pktSize_board.cache_hierarchy.ruby_system.controllers.sequencer.mem-request-port::board.rng.pio           32                       # Cumulative packet size per connected requestor and responder (Byte)
board.iobus.pktSize_board.cache_hierarchy.ruby_system.controllers.sequencer.mem-request-port::board.platform.clint.pio        13164                       # Cumulative packet size per connected requestor and responder (Byte)
board.iobus.pktSize_board.cache_hierarchy.ruby_system.controllers.sequencer.mem-request-port::board.platform.plic.pio         1804                       # Cumulative packet size per connected requestor and responder (Byte)
board.iobus.pktSize_board.cache_hierarchy.ruby_system.controllers.sequencer.mem-request-port::total        31514                       # Cumulative packet size per connected requestor and responder (Byte)
board.iobus.pktSize::total                      31514                       # Cumulative packet size per connected requestor and responder (Byte)
board.iobus.badaddr_responder.power_state.pwrStateResidencyTicks::UNDEFINED 1532960921000                       # Cumulative time (in ticks) in various power states (Tick)
board.iobus.power_state.pwrStateResidencyTicks::UNDEFINED 1532960921000                       # Cumulative time (in ticks) in various power states (Tick)
board.iobus.reqLayer2.occupancy              22568996                       # Layer occupancy (ticks) (Tick)
board.iobus.reqLayer2.utilization                 0.0                       # Layer utilization (Ratio)
board.iobus.reqLayer3.occupancy                613976                       # Layer occupancy (ticks) (Tick)
board.iobus.reqLayer3.utilization                 0.0                       # Layer utilization (Ratio)
board.iobus.reqLayer4.occupancy                 11999                       # Layer occupancy (ticks) (Tick)
board.iobus.reqLayer4.utilization                 0.0                       # Layer utilization (Ratio)
board.iobus.reqLayer5.occupancy               3902000                       # Layer occupancy (ticks) (Tick)
board.iobus.reqLayer5.utilization                 0.0                       # Layer utilization (Ratio)
board.iobus.reqLayer6.occupancy                664969                       # Layer occupancy (ticks) (Tick)
board.iobus.reqLayer6.utilization                 0.0                       # Layer utilization (Ratio)
board.iobus.respLayer2.occupancy             28347000                       # Layer occupancy (ticks) (Tick)
board.iobus.respLayer2.utilization                0.0                       # Layer utilization (Ratio)
board.memory.mem_ctrl.avgPriority_cache_hierarchy.ruby_system.directory_controllers::samples  23210952.00                       # Average QoS priority value for accepted requests (Count)
board.memory.mem_ctrl.priorityMinLatency 0.000000018750                       # per QoS priority minimum request to response latency (Second)
board.memory.mem_ctrl.priorityMaxLatency 0.007385088500                       # per QoS priority maximum request to response latency (Second)
board.memory.mem_ctrl.numReadWriteTurnArounds       726056                       # Number of turnarounds from READ to WRITE (Count)
board.memory.mem_ctrl.numWriteReadTurnArounds       726056                       # Number of turnarounds from WRITE to READ (Count)
board.memory.mem_ctrl.numStayReadState       34438872                       # Number of times bus staying in READ state (Count)
board.memory.mem_ctrl.numStayWriteState      10927662                       # Number of times bus staying in WRITE state (Count)
board.memory.mem_ctrl.readReqs               11644540                       # Number of read requests accepted (Count)
board.memory.mem_ctrl.writeReqs              11644028                       # Number of write requests accepted (Count)
board.memory.mem_ctrl.readBursts             11644540                       # Number of controller read bursts, including those serviced by the write queue (Count)
board.memory.mem_ctrl.writeBursts            11644028                       # Number of controller write bursts, including those merged in the write queue (Count)
board.memory.mem_ctrl.servicedByWrQ             75043                       # Number of controller read bursts serviced by the write queue (Count)
board.memory.mem_ctrl.mergedWrBursts             2573                       # Number of controller write bursts merged with an existing one (Count)
board.memory.mem_ctrl.neitherReadNorWriteReqs            0                       # Number of requests that are neither read nor write (Count)
board.memory.mem_ctrl.avgRdQLen                  1.00                       # Average read queue length when enqueuing ((Count/Tick))
board.memory.mem_ctrl.avgWrQLen                 25.84                       # Average write queue length when enqueuing ((Count/Tick))
board.memory.mem_ctrl.numRdRetry                    0                       # Number of times read queue was full causing retry (Count)
board.memory.mem_ctrl.numWrRetry                    0                       # Number of times write queue was full causing retry (Count)
board.memory.mem_ctrl.readPktSize::0                0                       # Read request sizes (log2) (Count)
board.memory.mem_ctrl.readPktSize::1                0                       # Read request sizes (log2) (Count)
board.memory.mem_ctrl.readPktSize::2                0                       # Read request sizes (log2) (Count)
board.memory.mem_ctrl.readPktSize::3                0                       # Read request sizes (log2) (Count)
board.memory.mem_ctrl.readPktSize::4                0                       # Read request sizes (log2) (Count)
board.memory.mem_ctrl.readPktSize::5                0                       # Read request sizes (log2) (Count)
board.memory.mem_ctrl.readPktSize::6         11644540                       # Read request sizes (log2) (Count)
board.memory.mem_ctrl.writePktSize::0               0                       # Write request sizes (log2) (Count)
board.memory.mem_ctrl.writePktSize::1               0                       # Write request sizes (log2) (Count)
board.memory.mem_ctrl.writePktSize::2               0                       # Write request sizes (log2) (Count)
board.memory.mem_ctrl.writePktSize::3               0                       # Write request sizes (log2) (Count)
board.memory.mem_ctrl.writePktSize::4               0                       # Write request sizes (log2) (Count)
board.memory.mem_ctrl.writePktSize::5               0                       # Write request sizes (log2) (Count)
board.memory.mem_ctrl.writePktSize::6        11644028                       # Write request sizes (log2) (Count)
board.memory.mem_ctrl.rdQLenPdf::0           11569497                       # What read queue length does an incoming req see (Count)
board.memory.mem_ctrl.rdQLenPdf::1                  0                       # What read queue length does an incoming req see (Count)
board.memory.mem_ctrl.rdQLenPdf::2                  0                       # What read queue length does an incoming req see (Count)
board.memory.mem_ctrl.rdQLenPdf::3                  0                       # What read queue length does an incoming req see (Count)
board.memory.mem_ctrl.rdQLenPdf::4                  0                       # What read queue length does an incoming req see (Count)
board.memory.mem_ctrl.rdQLenPdf::5                  0                       # What read queue length does an incoming req see (Count)
board.memory.mem_ctrl.rdQLenPdf::6                  0                       # What read queue length does an incoming req see (Count)
board.memory.mem_ctrl.rdQLenPdf::7                  0                       # What read queue length does an incoming req see (Count)
[...]
board.processor.cores.core.commitStats0.committedInstType::FloatSqrt            0      0.00%     55.51% # Class of committed instruction. (Count)
board.processor.cores.core.commitStats0.committedInstType::SimdAdd            0      0.00%     55.51% # Class of committed instruction. (Count)
board.processor.cores.core.commitStats0.committedInstType::SimdAddAcc            0      0.00%     55.51% # Class of committed instruction. (Count)
board.processor.cores.core.commitStats0.committedInstType::SimdAlu            0      0.00%     55.51% # Class of committed instruction. (Count)
board.processor.cores.core.commitStats0.committedInstType::SimdCmp            0      0.00%     55.51% # Class of committed instruction. (Count)
board.processor.cores.core.commitStats0.committedInstType::SimdCvt            0      0.00%     55.51% # Class of committed instruction. (Count)
board.processor.cores.core.commitStats0.committedInstType::SimdMisc            0      0.00%     55.51% # Class of committed instruction. (Count)
board.processor.cores.core.commitStats0.committedInstType::SimdMult            0      0.00%     55.51% # Class of committed instruction. (Count)
board.processor.cores.core.commitStats0.committedInstType::SimdMultAcc            0      0.00%     55.51% # Class of committed instruction. (Count)
board.processor.cores.core.commitStats0.committedInstType::SimdMatMultAcc            0      0.00%     55.51% # Class of committed instruction. (Count)
board.processor.cores.core.commitStats0.committedInstType::SimdShift            0      0.00%     55.51% # Class of committed instruction. (Count)
board.processor.cores.core.commitStats0.committedInstType::SimdShiftAcc            0      0.00%     55.51% # Class of committed instruction. (Count)
board.processor.cores.core.commitStats0.committedInstType::SimdDiv            0      0.00%     55.51% # Class of committed instruction. (Count)
board.processor.cores.core.commitStats0.committedInstType::SimdSqrt            0      0.00%     55.51% # Class of committed instruction. (Count)
board.processor.cores.core.commitStats0.committedInstType::SimdFloatAdd            0      0.00%     55.51% # Class of committed instruction. (Count)
board.processor.cores.core.commitStats0.committedInstType::SimdFloatAlu            0      0.00%     55.51% # Class of committed instruction. (Count)
board.processor.cores.core.commitStats0.committedInstType::SimdFloatCmp            0      0.00%     55.51% # Class of committed instruction. (Count)
board.processor.cores.core.commitStats0.committedInstType::SimdFloatCvt            0      0.00%     55.51% # Class of committed instruction. (Count)
board.processor.cores.core.commitStats0.committedInstType::SimdFloatDiv            0      0.00%     55.51% # Class of committed instruction. (Count)
board.processor.cores.core.commitStats0.committedInstType::SimdFloatMisc            0      0.00%     55.51% # Class of committed instruction. (Count)
board.processor.cores.core.commitStats0.committedInstType::SimdFloatMult            0      0.00%     55.51% # Class of committed instruction. (Count)
board.processor.cores.core.commitStats0.committedInstType::SimdFloatMultAcc            0      0.00%     55.51% # Class of committed instruction. (Count)
board.processor.cores.core.commitStats0.committedInstType::SimdFloatMatMultAcc            0      0.00%     55.51% # Class of committed instruction. (Count)
board.processor.cores.core.commitStats0.committedInstType::SimdFloatSqrt            0      0.00%     55.51% # Class of committed instruction. (Count)
board.processor.cores.core.commitStats0.committedInstType::SimdReduceAdd            0      0.00%     55.51% # Class of committed instruction. (Count)
board.processor.cores.core.commitStats0.committedInstType::SimdReduceAlu            0      0.00%     55.51% # Class of committed instruction. (Count)
board.processor.cores.core.commitStats0.committedInstType::SimdReduceCmp            0      0.00%     55.51% # Class of committed instruction. (Count)
board.processor.cores.core.commitStats0.committedInstType::SimdFloatReduceAdd            0      0.00%     55.51% # Class of committed instruction. (Count)
board.processor.cores.core.commitStats0.committedInstType::SimdFloatReduceCmp            0      0.00%     55.51% # Class of committed instruction. (Count)
board.processor.cores.core.commitStats0.committedInstType::SimdAes            0      0.00%     55.51% # Class of committed instruction. (Count)
board.processor.cores.core.commitStats0.committedInstType::SimdAesMix            0      0.00%     55.51% # Class of committed instruction. (Count)
board.processor.cores.core.commitStats0.committedInstType::SimdSha1Hash            0      0.00%     55.51% # Class of committed instruction. (Count)
board.processor.cores.core.commitStats0.committedInstType::SimdSha1Hash2            0      0.00%     55.51% # Class of committed instruction. (Count)
board.processor.cores.core.commitStats0.committedInstType::SimdSha256Hash            0      0.00%     55.51% # Class of committed instruction. (Count)
board.processor.cores.core.commitStats0.committedInstType::SimdSha256Hash2            0      0.00%     55.51% # Class of committed instruction. (Count)
board.processor.cores.core.commitStats0.committedInstType::SimdShaSigma2            0      0.00%     55.51% # Class of committed instruction. (Count)
board.processor.cores.core.commitStats0.committedInstType::SimdShaSigma3            0      0.00%     55.51% # Class of committed instruction. (Count)
board.processor.cores.core.commitStats0.committedInstType::SimdPredAlu            0      0.00%     55.51% # Class of committed instruction. (Count)
board.processor.cores.core.commitStats0.committedInstType::Matrix            0      0.00%     55.51% # Class of committed instruction. (Count)
board.processor.cores.core.commitStats0.committedInstType::MatrixMov            0      0.00%     55.51% # Class of committed instruction. (Count)
board.processor.cores.core.commitStats0.committedInstType::MatrixOP            0      0.00%     55.51% # Class of committed instruction. (Count)
board.processor.cores.core.commitStats0.committedInstType::MemRead     36450687     16.71%     72.22% # Class of committed instruction. (Count)
board.processor.cores.core.commitStats0.committedInstType::MemWrite     60590069     27.77%     99.99% # Class of committed instruction. (Count)
board.processor.cores.core.commitStats0.committedInstType::FloatMemRead        15136      0.01%    100.00% # Class of committed instruction. (Count)
board.processor.cores.core.commitStats0.committedInstType::FloatMemWrite         4572      0.00%    100.00% # Class of committed instruction. (Count)
board.processor.cores.core.commitStats0.committedInstType::IprAccess            0      0.00%    100.00% # Class of committed instruction. (Count)
board.processor.cores.core.commitStats0.committedInstType::InstPrefetch            0      0.00%    100.00% # Class of committed instruction. (Count)
board.processor.cores.core.commitStats0.committedInstType::VectorUnitStrideLoad            0      0.00%    100.00% # Class of committed instruction. (Count)
board.processor.cores.core.commitStats0.committedInstType::VectorUnitStrideStore            0      0.00%    100.00% # Class of committed instruction. (Count)
board.processor.cores.core.commitStats0.committedInstType::VectorUnitStrideMaskLoad            0      0.00%    100.00% # Class of committed instruction. (Count)
board.processor.cores.core.commitStats0.committedInstType::VectorUnitStrideMaskStore            0      0.00%    100.00% # Class of committed instruction. (Count)
board.processor.cores.core.commitStats0.committedInstType::VectorStridedLoad            0      0.00%    100.00% # Class of committed instruction. (Count)
board.processor.cores.core.commitStats0.committedInstType::VectorStridedStore            0      0.00%    100.00% # Class of committed instruction. (Count)
board.processor.cores.core.commitStats0.committedInstType::VectorIndexedLoad            0      0.00%    100.00% # Class of committed instruction. (Count)
board.processor.cores.core.commitStats0.committedInstType::VectorIndexedStore            0      0.00%    100.00% # Class of committed instruction. (Count)
board.processor.cores.core.commitStats0.committedInstType::VectorUnitStrideFaultOnlyFirstLoad            0      0.00%    100.00% # Class of committed instruction. (Count)
board.processor.cores.core.commitStats0.committedInstType::VectorWholeRegisterLoad            0      0.00%    100.00% # Class of committed instruction. (Count)
board.processor.cores.core.commitStats0.committedInstType::VectorWholeRegisterStore            0      0.00%    100.00% # Class of committed instruction. (Count)
board.processor.cores.core.commitStats0.committedInstType::VectorIntegerArith            0      0.00%    100.00% # Class of committed instruction. (Count)
board.processor.cores.core.commitStats0.committedInstType::VectorFloatArith            0      0.00%    100.00% # Class of committed instruction. (Count)
board.processor.cores.core.commitStats0.committedInstType::VectorFloatConvert            0      0.00%    100.00% # Class of committed instruction. (Count)
board.processor.cores.core.commitStats0.committedInstType::VectorIntegerReduce            0      0.00%    100.00% # Class of committed instruction. (Count)
board.processor.cores.core.commitStats0.committedInstType::VectorFloatReduce            0      0.00%    100.00% # Class of committed instruction. (Count)
board.processor.cores.core.commitStats0.committedInstType::VectorMisc            0      0.00%    100.00% # Class of committed instruction. (Count)
board.processor.cores.core.commitStats0.committedInstType::VectorIntegerExtension            0      0.00%    100.00% # Class of committed instruction. (Count)
board.processor.cores.core.commitStats0.committedInstType::VectorConfig            0      0.00%    100.00% # Class of committed instruction. (Count)
board.processor.cores.core.commitStats0.committedInstType::total    218180224                       # Class of committed instruction. (Count)
board.processor.cores.core.commitStats0.committedControl::IsControl     41102900                       # Class of control type instructions committed (Count)
board.processor.cores.core.commitStats0.committedControl::IsDirectControl     38791239                       # Class of control type instructions committed (Count)
board.processor.cores.core.commitStats0.committedControl::IsIndirectControl      2304224                       # Class of control type instructions committed (Count)
board.processor.cores.core.commitStats0.committedControl::IsCondControl     34439949                       # Class of control type instructions committed (Count)
board.processor.cores.core.commitStats0.committedControl::IsUncondControl      6655514                       # Class of control type instructions committed (Count)
board.processor.cores.core.commitStats0.committedControl::IsCall      1665158                       # Class of control type instructions committed (Count)
board.processor.cores.core.commitStats0.committedControl::IsReturn      1679330                       # Class of control type instructions committed (Count)
board.processor.cores.core.exec_context.thread_0.numMatAluAccesses            0                       # Number of matrix alu accesses (Count)
board.processor.cores.core.exec_context.thread_0.numCallsReturns      3344488                       # Number of times a function call or return occured (Count)
board.processor.cores.core.exec_context.thread_0.numMatInsts            0                       # Number of matrix instructions (Count)
board.processor.cores.core.exec_context.thread_0.numIdleCycles 3680836.999998                       # Number of idle cycles (Cycle)
board.processor.cores.core.exec_context.thread_0.numBusyCycles 1529280084.000002                       # Number of busy cycles (Cycle)
board.processor.cores.core.exec_context.thread_0.notIdleFraction     0.997599                       # Percentage of non-idle cycles (Ratio)
board.processor.cores.core.exec_context.thread_0.idleFraction     0.002401                       # Percentage of idle cycles (Ratio)
board.processor.cores.core.executeStats0.numInsts            0                       # Number of executed instructions (Count)
board.processor.cores.core.executeStats0.numNop            0                       # Number of nop insts executed (Count)
board.processor.cores.core.executeStats0.numBranches            0                       # Number of branches executed (Count)
board.processor.cores.core.executeStats0.numLoadInsts            0                       # Number of load instructions executed (Count)
board.processor.cores.core.executeStats0.numStoreInsts     97060464                       # Number of stores executed (Count)
board.processor.cores.core.executeStats0.instRate            0                       # Inst execution rate ((Count/Cycle))
board.processor.cores.core.executeStats0.numFpAluAccesses        19740                       # Number of float alu accesses (Count)
board.processor.cores.core.executeStats0.numFpRegReads         4572                       # Number of times the floating registers were read (Count)
board.processor.cores.core.executeStats0.numFpRegWrites        15168                       # Number of times the floating registers were written (Count)
board.processor.cores.core.executeStats0.numIntAluAccesses    214280379                       # Number of integer alu accesses (Count)
board.processor.cores.core.executeStats0.numIntRegReads    292682756                       # Number of times the integer registers were read (Count)
board.processor.cores.core.executeStats0.numIntRegWrites    117092847                       # Number of times the integer registers were written (Count)
board.processor.cores.core.executeStats0.numMemRefs     97060464                       # Number of memory refs (Count)
board.processor.cores.core.executeStats0.numMiscRegReads       744009                       # Number of times the Misc registers were read (Count)
board.processor.cores.core.executeStats0.numMiscRegWrites       264393                       # Number of times the Misc registers were written (Count)
board.processor.cores.core.executeStats0.numVecAluAccesses            0                       # Number of vector alu accesses (Count)
board.processor.cores.core.executeStats0.numDiscardedOps            0                       # Number of ops (including micro ops) which were discarded before commit (Count)
board.processor.cores.core.fetchStats0.numInsts    217743879                       # Number of instructions fetched (thread level) (Count)
board.processor.cores.core.fetchStats0.numOps    218180224                       # Number of ops (including micro ops) fetched (thread level) (Count)
board.processor.cores.core.fetchStats0.fetchRate     0.142041                       # Number of inst fetches per cycle ((Count/Cycle))
board.processor.cores.core.fetchStats0.numBranches     41102900                       # Number of branches fetched (Count)
board.processor.cores.core.fetchStats0.branchRate     0.026813                       # Number of branch fetches per cycle (Ratio)
board.processor.cores.core.fetchStats0.numFetchSuspends            0                       # Number of times Execute suspended instruction fetching (Count)
board.processor.cores.core.mmu.dtb.readHits     36030763                       # read hits (Count)
board.processor.cores.core.mmu.dtb.readMisses        26210                       # read misses (Count)
board.processor.cores.core.mmu.dtb.readAccesses     36056973                       # read accesses (Count)
board.processor.cores.core.mmu.dtb.writeHits     60875989                       # write hits (Count)
board.processor.cores.core.mmu.dtb.writeMisses         3815                       # write misses (Count)
board.processor.cores.core.mmu.dtb.writeAccesses     60879804                       # write accesses (Count)
board.processor.cores.core.mmu.dtb.hits      96906752                       # Total TLB (read and write) hits (Count)
board.processor.cores.core.mmu.dtb.misses        30025                       # Total TLB (read and write) misses (Count)
board.processor.cores.core.mmu.dtb.accesses     96936777                       # Total TLB (read and write) accesses (Count)
board.processor.cores.core.mmu.dtb.walker.power_state.pwrStateResidencyTicks::UNDEFINED 1532960921000                       # Cumulative time (in ticks) in various power states (Tick)
board.processor.cores.core.mmu.itb.readHits    267227982                       # read hits (Count)
board.processor.cores.core.mmu.itb.readMisses        14676                       # read misses (Count)
board.processor.cores.core.mmu.itb.readAccesses    267242658                       # read accesses (Count)
board.processor.cores.core.mmu.itb.writeHits            0                       # write hits (Count)
board.processor.cores.core.mmu.itb.writeMisses            0                       # write misses (Count)
board.processor.cores.core.mmu.itb.writeAccesses            0                       # write accesses (Count)
board.processor.cores.core.mmu.itb.hits     267227982                       # Total TLB (read and write) hits (Count)
board.processor.cores.core.mmu.itb.misses        14676                       # Total TLB (read and write) misses (Count)
board.processor.cores.core.mmu.itb.accesses    267242658                       # Total TLB (read and write) accesses (Count)
board.processor.cores.core.mmu.itb.walker.power_state.pwrStateResidencyTicks::UNDEFINED 1532960921000                       # Cumulative time (in ticks) in various power states (Tick)
board.processor.cores.core.power_state.numTransitions            2                       # Number of power state transitions (Count)
board.processor.cores.core.power_state.ticksClkGated::samples            1                       # Distribution of time spent in the clock gated state (Tick)
board.processor.cores.core.power_state.ticksClkGated::mean   3680837000                       # Distribution of time spent in the clock gated state (Tick)
board.processor.cores.core.power_state.ticksClkGated::1000-5e+10            1    100.00%    100.00% # Distribution of time spent in the clock gated state (Tick)
board.processor.cores.core.power_state.ticksClkGated::min_value   3680837000                       # Distribution of time spent in the clock gated state (Tick)
board.processor.cores.core.power_state.ticksClkGated::max_value   3680837000                       # Distribution of time spent in the clock gated state (Tick)
board.processor.cores.core.power_state.ticksClkGated::total            1                       # Distribution of time spent in the clock gated state (Tick)
board.processor.cores.core.power_state.pwrStateResidencyTicks::ON 1529280084000                       # Cumulative time (in ticks) in various power states (Tick)
board.processor.cores.core.power_state.pwrStateResidencyTicks::CLK_GATED   3680837000                       # Cumulative time (in ticks) in various power states (Tick)
board.processor.cores.core.thread_0.numInsts            0                       # Number of Instructions committed (Count)
board.processor.cores.core.thread_0.numOps            0                       # Number of Ops committed (Count)
board.processor.cores.core.thread_0.numMemRefs            0                       # Number of Memory References (Count)
board.rng.power_state.pwrStateResidencyTicks::UNDEFINED 1532960921000                       # Cumulative time (in ticks) in various power states (Tick)
board.workload.inst.arm                             0                       # number of arm instructions executed (Count)
board.workload.inst.quiesce                         1                       # number of quiesce instructions executed (Count)

---------- End Simulation Statistics   ----------
