Global frequency set at 1000000000000 ticks per second
      0: board.platform.rtc: Real-time clock set to Sun Jan  1 00:00:00 2012
gem5 Simulator System.  https://www.gem5.org
gem5 is copyrighted software; use the --copyright option for details.

gem5 version 23.1.0.0
gem5 compiled Mar 27 2024 17:48:58
gem5 started Mar 27 2024 18:00:56
gem5 executing on francio-ThinkPad-P15v-Gen-1, pid 49966
command line: ./gem5/build/RISCV_MESI_TwoLevels/gem5.opt --debug-flags=MMU,TLB,TLBVerbose,PageTableWalker --debug-start=275494615000 gem5/configs/example/riscv/riscv-fs_MESI_TwoLevels.py

info: Using default config
Beginning simulation!
4377387000: board.platform.terminal: attach terminal 0
275494615000: board.processor.start.core.mmu.itb: lookup(vpn=0x105c4, asid=0): hit ppn 0x101011
275494615000: board.processor.start.core.mmu.itb: translate(vpn=0x105c4, asid=0): 0x1010115c4
275494615000: board.processor.start.core.mmu.itb: flushAll()
275494615000: board.processor.start.core.mmu.itb: remove(vpn=0xffffffe000400000, asid=0): ppn=0x80600 pte=0x201800cb size=0x200000
275494615000: board.processor.start.core.mmu.itb: remove(vpn=0x3c000, asid=0): ppn=0x101095 pte=0x4042545b size=0x1000
275494615000: board.processor.start.core.mmu.itb: remove(vpn=0xffffffe000200000, asid=0): ppn=0x80400 pte=0x201000cb size=0x200000
275494615000: board.processor.start.core.mmu.itb: remove(vpn=0x16000, asid=0): ppn=0x101051 pte=0x4041445b size=0x1000
275494615000: board.processor.start.core.mmu.itb: remove(vpn=0x28000, asid=0): ppn=0x101033 pte=0x4040cc5b size=0x1000
275494615000: board.processor.start.core.mmu.itb: remove(vpn=0x18000, asid=0): ppn=0x101039 pte=0x4040e45b size=0x1000
275494615000: board.processor.start.core.mmu.itb: remove(vpn=0x23000, asid=0): ppn=0x10102d pte=0x4040b45b size=0x1000
275494615000: board.processor.start.core.mmu.itb: remove(vpn=0x22000, asid=0): ppn=0x101056 pte=0x4041585b size=0x1000
275494615000: board.processor.start.core.mmu.itb: remove(vpn=0xffffffe000600000, asid=0): ppn=0x80800 pte=0x202000cb size=0x200000
275494615000: board.processor.start.core.mmu.itb: remove(vpn=0x10000, asid=0): ppn=0x101011 pte=0x4040445b size=0x1000
275494615000: board.processor.start.core.mmu.itb: remove(vpn=0x4b000, asid=0): ppn=0x10106f pte=0x4041bc5b size=0x1000
275494615000: board.processor.start.core.mmu.itb: remove(vpn=0x4a000, asid=0): ppn=0x10106e pte=0x4041b85b size=0x1000
275494615000: board.processor.start.core.mmu.itb: remove(vpn=0x14000, asid=0): ppn=0x10102e pte=0x4040b85b size=0x1000
275494615000: board.processor.start.core.mmu.itb: remove(vpn=0x13000, asid=0): ppn=0x10100a pte=0x4040285b size=0x1000
275494615000: board.processor.start.core.mmu.itb: remove(vpn=0x11000, asid=0): ppn=0x2781ea pte=0x9e07a85b size=0x1000
275494615000: board.processor.start.core.mmu.itb: remove(vpn=0x17000, asid=0): ppn=0x101029 pte=0x4040a45b size=0x1000
275494615000: board.processor.start.core.mmu.dtb: flushAll()
275494615000: board.processor.start.core.mmu.dtb: remove(vpn=0x70000, asid=0): ppn=0x101008 pte=0x4040205b size=0x1000
275494615000: board.processor.start.core.mmu.dtb: remove(vpn=0x71000, asid=0): ppn=0x101001 pte=0x4040045b size=0x1000
275494615000: board.processor.start.core.mmu.dtb: remove(vpn=0x72000, asid=0): ppn=0x101014 pte=0x4040505b size=0x1000
275494615000: board.processor.start.core.mmu.dtb: remove(vpn=0x73000, asid=0): ppn=0x10101d pte=0x4040745b size=0x1000
275494615000: board.processor.start.core.mmu.dtb: remove(vpn=0x74000, asid=0): ppn=0x101019 pte=0x4040645b size=0x1000
275494615000: board.processor.start.core.mmu.dtb: remove(vpn=0x80000, asid=0): ppn=0x101087 pte=0x40421cd7 size=0x1000
275494615000: board.processor.start.core.mmu.dtb: remove(vpn=0x81000, asid=0): ppn=0x10109d pte=0x404274d7 size=0x1000
275494615000: board.processor.start.core.mmu.dtb: remove(vpn=0x78000, asid=0): ppn=0x10109e pte=0x404278d3 size=0x1000
275494615000: board.processor.start.core.mmu.dtb: remove(vpn=0xffffffe080600000, asid=0): ppn=0x100800 pte=0x402000c7 size=0x200000
275494615000: board.processor.start.core.mmu.dtb: remove(vpn=0x6f000, asid=0): ppn=0x10100c pte=0x4040305b size=0x1000
275494615000: board.processor.start.core.mmu.dtb: remove(vpn=0x6e000, asid=0): ppn=0x101018 pte=0x4040605b size=0x1000
275494615000: board.processor.start.core.mmu.dtb: remove(vpn=0xffffffe080a00000, asid=0): ppn=0x100c00 pte=0x403000c7 size=0x200000
275494615000: board.processor.start.core.mmu.dtb: remove(vpn=0xffffffe000c00000, asid=0): ppn=0x80e00 pte=0x203800c7 size=0x200000
275494615000: board.processor.start.core.mmu.dtb: remove(vpn=0x3fffcbb000, asid=0): ppn=0x101013 pte=0x40404cd7 size=0x1000
275494615000: board.processor.start.core.mmu.dtb: remove(vpn=0xffffffe000800000, asid=0): ppn=0x80a00 pte=0x202800c3 size=0x200000
275494615000: board.processor.start.core.mmu.dtb: remove(vpn=0xffffffe1f8c00000, asid=0): ppn=0x278e00 pte=0x9e3800c7 size=0x200000
275494615000: board.processor.start.core.mmu.dtb: remove(vpn=0xffffffe080200000, asid=0): ppn=0x100400 pte=0x401000c7 size=0x200000
275494615000: board.processor.start.core.mmu.dtb: remove(vpn=0xffffffe1faa00000, asid=0): ppn=0x27ac00 pte=0x9eb000c7 size=0x200000
275494615000: board.processor.start.core.mmu.dtb: remove(vpn=0xffffffe000a00000, asid=0): ppn=0x80c00 pte=0x203000c3 size=0x200000
275494615000: board.processor.start.core.mmu.dtb: remove(vpn=0x7a000, asid=0): ppn=0x101017 pte=0x40405cd7 size=0x1000
275494615000: board.processor.start.core.mmu.dtb: remove(vpn=0x7b000, asid=0): ppn=0x101057 pte=0x40415cd7 size=0x1000
275494615000: board.processor.start.core.mmu.dtb: remove(vpn=0x79000, asid=0): ppn=0x101069 pte=0x4041a4d7 size=0x1000
275494615000: board.processor.start.core.mmu.dtb: remove(vpn=0x7f000, asid=0): ppn=0x101034 pte=0x4040d0d7 size=0x1000
275494615000: board.processor.start.core.mmu.dtb: remove(vpn=0x75000, asid=0): ppn=0x10100f pte=0x40403c53 size=0x1000
275494615000: board.processor.start.core.mmu.dtb: remove(vpn=0xffffffe080800000, asid=0): ppn=0x100a00 pte=0x402800c7 size=0x200000
275494615000: board.processor.start.core.mmu.dtb: remove(vpn=0xffffffe080e00000, asid=0): ppn=0x101000 pte=0x404000c7 size=0x200000
275494615000: board.processor.start.core.mmu.dtb: remove(vpn=0xffffffd004001000, asid=0): ppn=0x10008 pte=0x40020c7 size=0x1000
275494615000: board.processor.start.core.mmu.dtb: remove(vpn=0xffffffd000201000, asid=0): ppn=0xc201 pte=0x30804c7 size=0x1000
275494615000: board.processor.start.core.mmu.dtb: remove(vpn=0x67000, asid=0): ppn=0x1010a3 pte=0x40428c5b size=0x1000
275494615000: board.processor.start.core.mmu.dtb: remove(vpn=0x68000, asid=0): ppn=0x1010a4 pte=0x4042905b size=0x1000
275494615000: board.processor.start.core.mmu.dtb: remove(vpn=0x69000, asid=0): ppn=0x1010a5 pte=0x4042945b size=0x1000
275494615000: board.processor.start.core.mmu.dtb: remove(vpn=0x6a000, asid=0): ppn=0x101016 pte=0x4040585b size=0x1000
275494615000: board.processor.start.core.mmu.dtb: remove(vpn=0x6b000, asid=0): ppn=0x101015 pte=0x4040545b size=0x1000
275494615000: board.processor.start.core.mmu.dtb: remove(vpn=0xffffffe07fe00000, asid=0): ppn=0x100000 pte=0x400000c7 size=0x200000
275494615000: board.processor.start.core.mmu.dtb: remove(vpn=0x6c000, asid=0): ppn=0x101006 pte=0x4040185b size=0x1000
275494615000: board.processor.start.core.mmu.dtb: remove(vpn=0x6d000, asid=0): ppn=0x101012 pte=0x4040485b size=0x1000
switching cpus
275494616000: board.processor.switch.core.mmu.itb: lookup(vpn=0x105c4, asid=0): miss ppn 0
275494616000: board.processor.switch.core.mmu.itb.walker: Performing table walk for address 0x105c4
275494616000: board.processor.switch.core.mmu.itb.walker: Loading level2 PTE from 0x100ca9000
275494694001: board.processor.switch.core.mmu.itb.walker: Got level2 PTE: 0x40319801
275494694001: board.processor.switch.core.mmu.itb.walker: Loading level1 PTE from 0x100c66000
275494773001: board.processor.switch.core.mmu.itb.walker: Got level1 PTE: 0x4032e401
275494773001: board.processor.switch.core.mmu.itb.walker: Loading level0 PTE from 0x100cb9080
275494852001: board.processor.switch.core.mmu.itb.walker: Got level0 PTE: 0x4040445b
275494852001: board.processor.switch.core.mmu.itb: insert(vpn=0x10000, asid=0): ppn=0x101011 pte=0x4040445b size=0x1000
275494852001: board.processor.switch.core.mmu.itb: lookup(vpn=0x105c4, asid=0): hit ppn 0x101011
275494932000: board.processor.switch.core.mmu.itb: lookup(vpn=0x1050c, asid=0): hit ppn 0x101011
275494932000: board.processor.switch.core.mmu.itb: translate(vpn=0x1050c, asid=0): 0x10101150c
275494997000: board.processor.switch.core.mmu.itb: lookup(vpn=0x1050c, asid=0): hit ppn 0x101011
275494997000: board.processor.switch.core.mmu.itb: translate(vpn=0x1050c, asid=0): 0x10101150c
275494999000: board.processor.switch.core.mmu.itb: lookup(vpn=0x10510, asid=0): hit ppn 0x101011
275494999000: board.processor.switch.core.mmu.itb: translate(vpn=0x10510, asid=0): 0x101011510
275495001000: board.processor.switch.core.mmu.itb: lookup(vpn=0x147dc, asid=0): miss ppn 0
275495001000: board.processor.switch.core.mmu.itb.walker: Performing table walk for address 0x147dc
275495001000: board.processor.switch.core.mmu.itb.walker: Loading level2 PTE from 0x100ca9000
275495002001: board.processor.switch.core.mmu.itb.walker: Got level2 PTE: 0x40319801
275495002001: board.processor.switch.core.mmu.itb.walker: Loading level1 PTE from 0x100c66000
275495004001: board.processor.switch.core.mmu.itb.walker: Got level1 PTE: 0x4032e401
275495004001: board.processor.switch.core.mmu.itb.walker: Loading level0 PTE from 0x100cb90a0
275495006001: board.processor.switch.core.mmu.itb.walker: Got level0 PTE: 0x4040b85b
275495006001: board.processor.switch.core.mmu.itb: insert(vpn=0x14000, asid=0): ppn=0x10102e pte=0x4040b85b size=0x1000
275495006001: board.processor.switch.core.mmu.itb: lookup(vpn=0x147dc, asid=0): hit ppn 0x10102e
275495086000: board.processor.switch.core.mmu.itb: lookup(vpn=0x147dc, asid=0): hit ppn 0x10102e
275495086000: board.processor.switch.core.mmu.itb: translate(vpn=0x147dc, asid=0): 0x10102e7dc
275495088000: board.processor.switch.core.mmu.dtb: lookup(vpn=0x3fffcbbb98, asid=0): miss ppn 0
275495088000: board.processor.switch.core.mmu.dtb.walker: Performing table walk for address 0x3fffcbbb98
275495088000: board.processor.switch.core.mmu.dtb.walker: Loading level2 PTE from 0x100ca97f8
275495152001: board.processor.switch.core.mmu.dtb.walker: Got level2 PTE: 0x4032a001
275495152001: board.processor.switch.core.mmu.dtb.walker: Loading level1 PTE from 0x100ca8ff0
275495217001: board.processor.switch.core.mmu.dtb.walker: Got level1 PTE: 0x4032d001
275495217001: board.processor.switch.core.mmu.dtb.walker: Loading level0 PTE from 0x100cb45d8
275495296001: board.processor.switch.core.mmu.dtb.walker: Got level0 PTE: 0x40404cd7
275495296001: board.processor.switch.core.mmu.dtb: insert(vpn=0x3fffcbb000, asid=0): ppn=0x101013 pte=0x40404cd7 size=0x1000
275495296001: board.processor.switch.core.mmu.dtb: lookup(vpn=0x3fffcbbb98, asid=0): hit ppn 0x101013
275495376000: board.processor.switch.core.mmu.itb: lookup(vpn=0x147e0, asid=0): hit ppn 0x10102e
275495376000: board.processor.switch.core.mmu.itb: translate(vpn=0x147e0, asid=0): 0x10102e7e0
275495378000: board.processor.switch.core.mmu.dtb: lookup(vpn=0x3fffcbbba8, asid=0): hit ppn 0x101013
275495378000: board.processor.switch.core.mmu.dtb: translate(vpn=0x3fffcbbba8, asid=0): 0x101013ba8
275495380000: board.processor.switch.core.mmu.itb: lookup(vpn=0x147e0, asid=0): hit ppn 0x10102e
275495380000: board.processor.switch.core.mmu.itb: translate(vpn=0x147e0, asid=0): 0x10102e7e0
275495382000: board.processor.switch.core.mmu.dtb: lookup(vpn=0x3fffcbbba0, asid=0): hit ppn 0x101013
275495382000: board.processor.switch.core.mmu.dtb: translate(vpn=0x3fffcbbba0, asid=0): 0x101013ba0
275495384000: board.processor.switch.core.mmu.itb: lookup(vpn=0x147e4, asid=0): hit ppn 0x10102e
275495384000: board.processor.switch.core.mmu.itb: translate(vpn=0x147e4, asid=0): 0x10102e7e4
275495386000: board.processor.switch.core.mmu.itb: lookup(vpn=0x147e8, asid=0): hit ppn 0x10102e
275495386000: board.processor.switch.core.mmu.itb: translate(vpn=0x147e8, asid=0): 0x10102e7e8
275495388000: board.processor.switch.core.mmu.dtb: lookup(vpn=0x7f565, asid=0): miss ppn 0
275495388000: board.processor.switch.core.mmu.dtb.walker: Performing table walk for address 0x7f565
275495388000: board.processor.switch.core.mmu.dtb.walker: Loading level2 PTE from 0x100ca9000
275495389001: board.processor.switch.core.mmu.dtb.walker: Got level2 PTE: 0x40319801
275495389001: board.processor.switch.core.mmu.dtb.walker: Loading level1 PTE from 0x100c66000
275495391001: board.processor.switch.core.mmu.dtb.walker: Got level1 PTE: 0x4032e401
275495391001: board.processor.switch.core.mmu.dtb.walker: Loading level0 PTE from 0x100cb93f8
275495456001: board.processor.switch.core.mmu.dtb.walker: Got level0 PTE: 0x4040d0d7
275495456001: board.processor.switch.core.mmu.dtb: insert(vpn=0x7f000, asid=0): ppn=0x101034 pte=0x4040d0d7 size=0x1000
275495456001: board.processor.switch.core.mmu.dtb: lookup(vpn=0x7f565, asid=0): hit ppn 0x101034
275495550000: board.processor.switch.core.mmu.itb: lookup(vpn=0x147ec, asid=0): hit ppn 0x10102e
275495550000: board.processor.switch.core.mmu.itb: translate(vpn=0x147ec, asid=0): 0x10102e7ec
275495552000: board.processor.switch.core.mmu.itb: lookup(vpn=0x147ec, asid=0): hit ppn 0x10102e
275495552000: board.processor.switch.core.mmu.itb: translate(vpn=0x147ec, asid=0): 0x10102e7ec
275495554000: board.processor.switch.core.mmu.itb: lookup(vpn=0x147f0, asid=0): hit ppn 0x10102e
275495554000: board.processor.switch.core.mmu.itb: translate(vpn=0x147f0, asid=0): 0x10102e7f0
275495556000: board.processor.switch.core.mmu.itb: lookup(vpn=0x147f4, asid=0): hit ppn 0x10102e
275495556000: board.processor.switch.core.mmu.itb: translate(vpn=0x147f4, asid=0): 0x10102e7f4
275495558000: board.processor.switch.core.mmu.dtb: lookup(vpn=0x3fffcbbb90, asid=0): hit ppn 0x101013
275495558000: board.processor.switch.core.mmu.dtb: translate(vpn=0x3fffcbbb90, asid=0): 0x101013b90
275495560000: board.processor.switch.core.mmu.itb: lookup(vpn=0x147f4, asid=0): hit ppn 0x10102e
275495560000: board.processor.switch.core.mmu.itb: translate(vpn=0x147f4, asid=0): 0x10102e7f4
275495562000: board.processor.switch.core.mmu.itb: lookup(vpn=0x147f8, asid=0): hit ppn 0x10102e
275495562000: board.processor.switch.core.mmu.itb: translate(vpn=0x147f8, asid=0): 0x10102e7f8
275495564000: board.processor.switch.core.mmu.itb: lookup(vpn=0x147f8, asid=0): hit ppn 0x10102e
275495564000: board.processor.switch.core.mmu.itb: translate(vpn=0x147f8, asid=0): 0x10102e7f8
275495566000: board.processor.switch.core.mmu.itb: lookup(vpn=0x147fc, asid=0): hit ppn 0x10102e
275495566000: board.processor.switch.core.mmu.itb: translate(vpn=0x147fc, asid=0): 0x10102e7fc
275495568000: board.processor.switch.core.mmu.itb: lookup(vpn=0x147fc, asid=0): hit ppn 0x10102e
275495568000: board.processor.switch.core.mmu.itb: translate(vpn=0x147fc, asid=0): 0x10102e7fc
275495570000: board.processor.switch.core.mmu.itb: lookup(vpn=0x14800, asid=0): hit ppn 0x10102e
275495570000: board.processor.switch.core.mmu.itb: translate(vpn=0x14800, asid=0): 0x10102e800
275495635000: board.processor.switch.core.mmu.itb: lookup(vpn=0x14808, asid=0): hit ppn 0x10102e
275495635000: board.processor.switch.core.mmu.itb: translate(vpn=0x14808, asid=0): 0x10102e808
275495637000: board.processor.switch.core.mmu.itb: lookup(vpn=0x1480c, asid=0): hit ppn 0x10102e
275495637000: board.processor.switch.core.mmu.itb: translate(vpn=0x1480c, asid=0): 0x10102e80c
275495639000: board.processor.switch.core.mmu.itb: lookup(vpn=0x1480c, asid=0): hit ppn 0x10102e
275495639000: board.processor.switch.core.mmu.itb: translate(vpn=0x1480c, asid=0): 0x10102e80c
275495641000: board.processor.switch.core.mmu.dtb: lookup(vpn=0x80788, asid=0): miss ppn 0
275495641000: board.processor.switch.core.mmu.dtb.walker: Performing table walk for address 0x80788
275495641000: board.processor.switch.core.mmu.dtb.walker: Loading level2 PTE from 0x100ca9000
275495642001: board.processor.switch.core.mmu.dtb.walker: Got level2 PTE: 0x40319801
275495642001: board.processor.switch.core.mmu.dtb.walker: Loading level1 PTE from 0x100c66000
275495644001: board.processor.switch.core.mmu.dtb.walker: Got level1 PTE: 0x4032e401
275495644001: board.processor.switch.core.mmu.dtb.walker: Loading level0 PTE from 0x100cb9400
275495709001: board.processor.switch.core.mmu.dtb.walker: Got level0 PTE: 0x40421cd7
275495709001: board.processor.switch.core.mmu.dtb: insert(vpn=0x80000, asid=0): ppn=0x101087 pte=0x40421cd7 size=0x1000
275495709001: board.processor.switch.core.mmu.dtb: lookup(vpn=0x80788, asid=0): hit ppn 0x101087
275495803000: board.processor.switch.core.mmu.itb: lookup(vpn=0x14810, asid=0): hit ppn 0x10102e
275495803000: board.processor.switch.core.mmu.itb: translate(vpn=0x14810, asid=0): 0x10102e810
275495805000: board.processor.switch.core.mmu.itb: lookup(vpn=0x14810, asid=0): hit ppn 0x10102e
275495805000: board.processor.switch.core.mmu.itb: translate(vpn=0x14810, asid=0): 0x10102e810
275495807000: board.processor.switch.core.mmu.itb: lookup(vpn=0x14814, asid=0): hit ppn 0x10102e
275495807000: board.processor.switch.core.mmu.itb: translate(vpn=0x14814, asid=0): 0x10102e814
275495809000: board.processor.switch.core.mmu.itb: lookup(vpn=0x14814, asid=0): hit ppn 0x10102e
275495809000: board.processor.switch.core.mmu.itb: translate(vpn=0x14814, asid=0): 0x10102e814
275495811000: board.processor.switch.core.mmu.itb: lookup(vpn=0x14818, asid=0): hit ppn 0x10102e
275495811000: board.processor.switch.core.mmu.itb: translate(vpn=0x14818, asid=0): 0x10102e818
275495813000: board.processor.switch.core.mmu.dtb: lookup(vpn=0x79078, asid=0): miss ppn 0
275495813000: board.processor.switch.core.mmu.dtb.walker: Performing table walk for address 0x79078
275495813000: board.processor.switch.core.mmu.dtb.walker: Loading level2 PTE from 0x100ca9000
275495814001: board.processor.switch.core.mmu.dtb.walker: Got level2 PTE: 0x40319801
275495814001: board.processor.switch.core.mmu.dtb.walker: Loading level1 PTE from 0x100c66000
275495816001: board.processor.switch.core.mmu.dtb.walker: Got level1 PTE: 0x4032e401
275495816001: board.processor.switch.core.mmu.dtb.walker: Loading level0 PTE from 0x100cb93c8
275495818001: board.processor.switch.core.mmu.dtb.walker: Got level0 PTE: 0x4041a4d7
275495818001: board.processor.switch.core.mmu.dtb: insert(vpn=0x79000, asid=0): ppn=0x101069 pte=0x4041a4d7 size=0x1000
275495818001: board.processor.switch.core.mmu.dtb: lookup(vpn=0x79078, asid=0): hit ppn 0x101069
275495912000: board.processor.switch.core.mmu.itb: lookup(vpn=0x14818, asid=0): hit ppn 0x10102e
275495912000: board.processor.switch.core.mmu.itb: translate(vpn=0x14818, asid=0): 0x10102e818
275495914000: board.processor.switch.core.mmu.itb: lookup(vpn=0x1481c, asid=0): hit ppn 0x10102e
275495914000: board.processor.switch.core.mmu.itb: translate(vpn=0x1481c, asid=0): 0x10102e81c
275495916000: board.processor.switch.core.mmu.itb: lookup(vpn=0x148ec, asid=0): hit ppn 0x10102e
275495916000: board.processor.switch.core.mmu.itb: translate(vpn=0x148ec, asid=0): 0x10102e8ec
275495981000: board.processor.switch.core.mmu.itb: lookup(vpn=0x148f0, asid=0): hit ppn 0x10102e
275495981000: board.processor.switch.core.mmu.itb: translate(vpn=0x148f0, asid=0): 0x10102e8f0
275495983000: board.processor.switch.core.mmu.itb: lookup(vpn=0x148f0, asid=0): hit ppn 0x10102e
275495983000: board.processor.switch.core.mmu.itb: translate(vpn=0x148f0, asid=0): 0x10102e8f0
275495985000: board.processor.switch.core.mmu.itb: lookup(vpn=0x148f4, asid=0): hit ppn 0x10102e
275495985000: board.processor.switch.core.mmu.itb: translate(vpn=0x148f4, asid=0): 0x10102e8f4
275495987000: board.processor.switch.core.mmu.dtb: lookup(vpn=0x80b10, asid=0): hit ppn 0x101087
275495987000: board.processor.switch.core.mmu.dtb: translate(vpn=0x80b10, asid=0): 0x101087b10
275496052000: board.processor.switch.core.mmu.itb: lookup(vpn=0x148f8, asid=0): hit ppn 0x10102e
275496052000: board.processor.switch.core.mmu.itb: translate(vpn=0x148f8, asid=0): 0x10102e8f8
275496054000: board.processor.switch.core.mmu.itb: lookup(vpn=0x1481c, asid=0): hit ppn 0x10102e
275496054000: board.processor.switch.core.mmu.itb: translate(vpn=0x1481c, asid=0): 0x10102e81c
275496056000: board.processor.switch.core.mmu.itb: lookup(vpn=0x14820, asid=0): hit ppn 0x10102e
275496056000: board.processor.switch.core.mmu.itb: translate(vpn=0x14820, asid=0): 0x10102e820
275496058000: board.processor.switch.core.mmu.dtb: lookup(vpn=0x80000, asid=0): hit ppn 0x101087
275496058000: board.processor.switch.core.mmu.dtb: translate(vpn=0x80000, asid=0): 0x101087000
275496123000: board.processor.switch.core.mmu.itb: lookup(vpn=0x14820, asid=0): hit ppn 0x10102e
275496123000: board.processor.switch.core.mmu.itb: translate(vpn=0x14820, asid=0): 0x10102e820
275496125000: board.processor.switch.core.mmu.itb: lookup(vpn=0x14824, asid=0): hit ppn 0x10102e
275496125000: board.processor.switch.core.mmu.itb: translate(vpn=0x14824, asid=0): 0x10102e824
275496127000: board.processor.switch.core.mmu.itb: lookup(vpn=0x14928, asid=0): hit ppn 0x10102e
275496127000: board.processor.switch.core.mmu.itb: translate(vpn=0x14928, asid=0): 0x10102e928
275496192000: board.processor.switch.core.mmu.itb: lookup(vpn=0x1492c, asid=0): hit ppn 0x10102e
275496192000: board.processor.switch.core.mmu.itb: translate(vpn=0x1492c, asid=0): 0x10102e92c
275496194000: board.processor.switch.core.mmu.itb: lookup(vpn=0x14930, asid=0): hit ppn 0x10102e
275496194000: board.processor.switch.core.mmu.itb: translate(vpn=0x14930, asid=0): 0x10102e930
275496196000: board.processor.switch.core.mmu.itb: lookup(vpn=0x14934, asid=0): hit ppn 0x10102e
275496196000: board.processor.switch.core.mmu.itb: translate(vpn=0x14934, asid=0): 0x10102e934
275496198000: board.processor.switch.core.mmu.itb: lookup(vpn=0x134f0, asid=0): miss ppn 0
275496198000: board.processor.switch.core.mmu.itb.walker: Performing table walk for address 0x134f0
275496198000: board.processor.switch.core.mmu.itb.walker: Loading level2 PTE from 0x100ca9000
275496199001: board.processor.switch.core.mmu.itb.walker: Got level2 PTE: 0x40319801
275496199001: board.processor.switch.core.mmu.itb.walker: Loading level1 PTE from 0x100c66000
275496201001: board.processor.switch.core.mmu.itb.walker: Got level1 PTE: 0x4032e401
275496201001: board.processor.switch.core.mmu.itb.walker: Loading level0 PTE from 0x100cb9098
275496203001: board.processor.switch.core.mmu.itb.walker: Got level0 PTE: 0x4040285b
275496203001: board.processor.switch.core.mmu.itb: insert(vpn=0x13000, asid=0): ppn=0x10100a pte=0x4040285b size=0x1000
275496203001: board.processor.switch.core.mmu.itb: lookup(vpn=0x134f0, asid=0): hit ppn 0x10100a
275496283000: board.processor.switch.core.mmu.itb: lookup(vpn=0x134f0, asid=0): hit ppn 0x10100a
275496283000: board.processor.switch.core.mmu.itb: translate(vpn=0x134f0, asid=0): 0x10100a4f0
275496285000: board.processor.switch.core.mmu.dtb: lookup(vpn=0x3fffcbbb88, asid=0): hit ppn 0x101013
275496285000: board.processor.switch.core.mmu.dtb: translate(vpn=0x3fffcbbb88, asid=0): 0x101013b88
275496287000: board.processor.switch.core.mmu.itb: lookup(vpn=0x134f4, asid=0): hit ppn 0x10100a
275496287000: board.processor.switch.core.mmu.itb: translate(vpn=0x134f4, asid=0): 0x10100a4f4
275496289000: board.processor.switch.core.mmu.dtb: lookup(vpn=0x3fffcbbb30, asid=0): hit ppn 0x101013
275496289000: board.processor.switch.core.mmu.dtb: translate(vpn=0x3fffcbbb30, asid=0): 0x101013b30
275496354000: board.processor.switch.core.mmu.itb: lookup(vpn=0x134f4, asid=0): hit ppn 0x10100a
275496354000: board.processor.switch.core.mmu.itb: translate(vpn=0x134f4, asid=0): 0x10100a4f4
275496356000: board.processor.switch.core.mmu.itb: lookup(vpn=0x134f8, asid=0): hit ppn 0x10100a
275496356000: board.processor.switch.core.mmu.itb: translate(vpn=0x134f8, asid=0): 0x10100a4f8
275496358000: board.processor.switch.core.mmu.itb: lookup(vpn=0x134f8, asid=0): hit ppn 0x10100a
275496358000: board.processor.switch.core.mmu.itb: translate(vpn=0x134f8, asid=0): 0x10100a4f8
275496360000: board.processor.switch.core.mmu.dtb: lookup(vpn=0x3fffcbbb80, asid=0): hit ppn 0x101013
275496360000: board.processor.switch.core.mmu.dtb: translate(vpn=0x3fffcbbb80, asid=0): 0x101013b80
275496362000: board.processor.switch.core.mmu.itb: lookup(vpn=0x134fc, asid=0): hit ppn 0x10100a
275496362000: board.processor.switch.core.mmu.itb: translate(vpn=0x134fc, asid=0): 0x10100a4fc
275496364000: board.processor.switch.core.mmu.dtb: lookup(vpn=0x3fffcbbb70, asid=0): hit ppn 0x101013
275496364000: board.processor.switch.core.mmu.dtb: translate(vpn=0x3fffcbbb70, asid=0): 0x101013b70
275496429000: board.processor.switch.core.mmu.itb: lookup(vpn=0x134fc, asid=0): hit ppn 0x10100a
275496429000: board.processor.switch.core.mmu.itb: translate(vpn=0x134fc, asid=0): 0x10100a4fc
275496431000: board.processor.switch.core.mmu.dtb: lookup(vpn=0x3fffcbbb68, asid=0): hit ppn 0x101013
275496431000: board.processor.switch.core.mmu.dtb: translate(vpn=0x3fffcbbb68, asid=0): 0x101013b68
275496433000: board.processor.switch.core.mmu.itb: lookup(vpn=0x13500, asid=0): hit ppn 0x10100a
275496433000: board.processor.switch.core.mmu.itb: translate(vpn=0x13500, asid=0): 0x10100a500
275496498000: board.processor.switch.core.mmu.dtb: lookup(vpn=0x3fffcbbb78, asid=0): hit ppn 0x101013
275496498000: board.processor.switch.core.mmu.dtb: translate(vpn=0x3fffcbbb78, asid=0): 0x101013b78
275496500000: board.processor.switch.core.mmu.itb: lookup(vpn=0x13500, asid=0): hit ppn 0x10100a
275496500000: board.processor.switch.core.mmu.itb: translate(vpn=0x13500, asid=0): 0x10100a500
275496502000: board.processor.switch.core.mmu.dtb: lookup(vpn=0x3fffcbbb60, asid=0): hit ppn 0x101013
275496502000: board.processor.switch.core.mmu.dtb: translate(vpn=0x3fffcbbb60, asid=0): 0x101013b60
275496504000: board.processor.switch.core.mmu.itb: lookup(vpn=0x13504, asid=0): hit ppn 0x10100a
275496504000: board.processor.switch.core.mmu.itb: translate(vpn=0x13504, asid=0): 0x10100a504
275496506000: board.processor.switch.core.mmu.itb: lookup(vpn=0x13508, asid=0): hit ppn 0x10100a
275496506000: board.processor.switch.core.mmu.itb: translate(vpn=0x13508, asid=0): 0x10100a508
275496508000: board.processor.switch.core.mmu.itb: lookup(vpn=0x13508, asid=0): hit ppn 0x10100a
275496508000: board.processor.switch.core.mmu.itb: translate(vpn=0x13508, asid=0): 0x10100a508
275496510000: board.processor.switch.core.mmu.itb: lookup(vpn=0x1350c, asid=0): hit ppn 0x10100a
275496510000: board.processor.switch.core.mmu.itb: translate(vpn=0x1350c, asid=0): 0x10100a50c
275496512000: board.processor.switch.core.mmu.itb: lookup(vpn=0x1350c, asid=0): hit ppn 0x10100a
275496512000: board.processor.switch.core.mmu.itb: translate(vpn=0x1350c, asid=0): 0x10100a50c
275496514000: board.processor.switch.core.mmu.itb: lookup(vpn=0x13510, asid=0): hit ppn 0x10100a
275496514000: board.processor.switch.core.mmu.itb: translate(vpn=0x13510, asid=0): 0x10100a510
275496516000: board.processor.switch.core.mmu.itb: lookup(vpn=0x137c8, asid=0): hit ppn 0x10100a
275496516000: board.processor.switch.core.mmu.itb: translate(vpn=0x137c8, asid=0): 0x10100a7c8
275496581000: board.processor.switch.core.mmu.itb: lookup(vpn=0x137cc, asid=0): hit ppn 0x10100a
275496581000: board.processor.switch.core.mmu.itb: translate(vpn=0x137cc, asid=0): 0x10100a7cc
275496583000: board.processor.switch.core.mmu.itb: lookup(vpn=0x137cc, asid=0): hit ppn 0x10100a
275496583000: board.processor.switch.core.mmu.itb: translate(vpn=0x137cc, asid=0): 0x10100a7cc
275496585000: board.processor.switch.core.mmu.itb: lookup(vpn=0x137d0, asid=0): hit ppn 0x10100a
275496585000: board.processor.switch.core.mmu.itb: translate(vpn=0x137d0, asid=0): 0x10100a7d0
275496587000: board.processor.switch.core.mmu.itb: lookup(vpn=0x137d0, asid=0): hit ppn 0x10100a
275496587000: board.processor.switch.core.mmu.itb: translate(vpn=0x137d0, asid=0): 0x10100a7d0
275496589000: board.processor.switch.core.mmu.itb: lookup(vpn=0x137d4, asid=0): hit ppn 0x10100a
275496589000: board.processor.switch.core.mmu.itb: translate(vpn=0x137d4, asid=0): 0x10100a7d4
275496591000: board.processor.switch.core.mmu.itb: lookup(vpn=0x137d4, asid=0): hit ppn 0x10100a
275496591000: board.processor.switch.core.mmu.itb: translate(vpn=0x137d4, asid=0): 0x10100a7d4
275496593000: board.processor.switch.core.mmu.itb: lookup(vpn=0x137d8, asid=0): hit ppn 0x10100a
275496593000: board.processor.switch.core.mmu.itb: translate(vpn=0x137d8, asid=0): 0x10100a7d8
275496595000: board.processor.switch.core.mmu.dtb: lookup(vpn=0x7f564, asid=0): hit ppn 0x101034
275496595000: board.processor.switch.core.mmu.dtb: translate(vpn=0x7f564, asid=0): 0x101034564
275496597000: board.processor.switch.core.mmu.itb: lookup(vpn=0x137d8, asid=0): hit ppn 0x10100a
275496597000: board.processor.switch.core.mmu.itb: translate(vpn=0x137d8, asid=0): 0x10100a7d8
275496599000: board.processor.switch.core.mmu.itb: lookup(vpn=0x137dc, asid=0): hit ppn 0x10100a
275496599000: board.processor.switch.core.mmu.itb: translate(vpn=0x137dc, asid=0): 0x10100a7dc
275496601000: board.processor.switch.core.mmu.itb: lookup(vpn=0x138b8, asid=0): hit ppn 0x10100a
275496601000: board.processor.switch.core.mmu.itb: translate(vpn=0x138b8, asid=0): 0x10100a8b8
275496666000: board.processor.switch.core.mmu.itb: lookup(vpn=0x138bc, asid=0): hit ppn 0x10100a
275496666000: board.processor.switch.core.mmu.itb: translate(vpn=0x138bc, asid=0): 0x10100a8bc
275496668000: board.processor.switch.core.mmu.itb: lookup(vpn=0x138c0, asid=0): hit ppn 0x10100a
275496668000: board.processor.switch.core.mmu.itb: translate(vpn=0x138c0, asid=0): 0x10100a8c0
275496733000: board.processor.switch.core.mmu.itb: lookup(vpn=0x138c4, asid=0): hit ppn 0x10100a
275496733000: board.processor.switch.core.mmu.itb: translate(vpn=0x138c4, asid=0): 0x10100a8c4
275496735000: board.processor.switch.core.mmu.itb: lookup(vpn=0x138c4, asid=0): hit ppn 0x10100a
275496735000: board.processor.switch.core.mmu.itb: translate(vpn=0x138c4, asid=0): 0x10100a8c4
275496737000: board.processor.switch.core.mmu.dtb: lookup(vpn=0x790b8, asid=0): hit ppn 0x101069
275496737000: board.processor.switch.core.mmu.dtb: translate(vpn=0x790b8, asid=0): 0x1010690b8
275496802000: board.processor.switch.core.mmu.itb: lookup(vpn=0x138c8, asid=0): hit ppn 0x10100a
275496802000: board.processor.switch.core.mmu.itb: translate(vpn=0x138c8, asid=0): 0x10100a8c8
275496804000: board.processor.switch.core.mmu.itb: lookup(vpn=0x138c8, asid=0): hit ppn 0x10100a
275496804000: board.processor.switch.core.mmu.itb: translate(vpn=0x138c8, asid=0): 0x10100a8c8
275496806000: board.processor.switch.core.mmu.itb: lookup(vpn=0x138cc, asid=0): hit ppn 0x10100a
275496806000: board.processor.switch.core.mmu.itb: translate(vpn=0x138cc, asid=0): 0x10100a8cc
275496808000: board.processor.switch.core.mmu.itb: lookup(vpn=0x138d0, asid=0): hit ppn 0x10100a
275496808000: board.processor.switch.core.mmu.itb: translate(vpn=0x138d0, asid=0): 0x10100a8d0
275496810000: board.processor.switch.core.mmu.itb: lookup(vpn=0x138d4, asid=0): hit ppn 0x10100a
275496810000: board.processor.switch.core.mmu.itb: translate(vpn=0x138d4, asid=0): 0x10100a8d4
275496812000: board.processor.switch.core.mmu.itb: lookup(vpn=0x138d8, asid=0): hit ppn 0x10100a
275496812000: board.processor.switch.core.mmu.itb: translate(vpn=0x138d8, asid=0): 0x10100a8d8
275496814000: board.processor.switch.core.mmu.itb: lookup(vpn=0x138d8, asid=0): hit ppn 0x10100a
275496814000: board.processor.switch.core.mmu.itb: translate(vpn=0x138d8, asid=0): 0x10100a8d8
275496816000: board.processor.switch.core.mmu.itb: lookup(vpn=0x138dc, asid=0): hit ppn 0x10100a
275496816000: board.processor.switch.core.mmu.itb: translate(vpn=0x138dc, asid=0): 0x10100a8dc
275496818000: board.processor.switch.core.mmu.itb: lookup(vpn=0x138dc, asid=0): hit ppn 0x10100a
275496818000: board.processor.switch.core.mmu.itb: translate(vpn=0x138dc, asid=0): 0x10100a8dc
275496820000: board.processor.switch.core.mmu.itb: lookup(vpn=0x137e8, asid=0): hit ppn 0x10100a
275496820000: board.processor.switch.core.mmu.itb: translate(vpn=0x137e8, asid=0): 0x10100a7e8
275496822000: board.processor.switch.core.mmu.itb: lookup(vpn=0x137e8, asid=0): hit ppn 0x10100a
275496822000: board.processor.switch.core.mmu.itb: translate(vpn=0x137e8, asid=0): 0x10100a7e8
275496824000: board.processor.switch.core.mmu.dtb: lookup(vpn=0x79130, asid=0): hit ppn 0x101069
275496824000: board.processor.switch.core.mmu.dtb: translate(vpn=0x79130, asid=0): 0x101069130
275496889000: board.processor.switch.core.mmu.itb: lookup(vpn=0x137ec, asid=0): hit ppn 0x10100a
275496889000: board.processor.switch.core.mmu.itb: translate(vpn=0x137ec, asid=0): 0x10100a7ec
275496891000: board.processor.switch.core.mmu.itb: lookup(vpn=0x137f0, asid=0): hit ppn 0x10100a
275496891000: board.processor.switch.core.mmu.itb: translate(vpn=0x137f0, asid=0): 0x10100a7f0
275496893000: board.processor.switch.core.mmu.itb: lookup(vpn=0x13990, asid=0): hit ppn 0x10100a
275496893000: board.processor.switch.core.mmu.itb: translate(vpn=0x13990, asid=0): 0x10100a990
275496958000: board.processor.switch.core.mmu.dtb: lookup(vpn=0x3fffcbbb58, asid=0): hit ppn 0x101013
275496958000: board.processor.switch.core.mmu.dtb: translate(vpn=0x3fffcbbb58, asid=0): 0x101013b58
275496960000: board.processor.switch.core.mmu.itb: lookup(vpn=0x13994, asid=0): hit ppn 0x10100a
275496960000: board.processor.switch.core.mmu.itb: translate(vpn=0x13994, asid=0): 0x10100a994
275496962000: board.processor.switch.core.mmu.dtb: lookup(vpn=0x3fffcbbb50, asid=0): hit ppn 0x101013
275496962000: board.processor.switch.core.mmu.dtb: translate(vpn=0x3fffcbbb50, asid=0): 0x101013b50
275496964000: board.processor.switch.core.mmu.itb: lookup(vpn=0x13994, asid=0): hit ppn 0x10100a
275496964000: board.processor.switch.core.mmu.itb: translate(vpn=0x13994, asid=0): 0x10100a994
275496966000: board.processor.switch.core.mmu.dtb: lookup(vpn=0x3fffcbbb48, asid=0): hit ppn 0x101013
275496966000: board.processor.switch.core.mmu.dtb: translate(vpn=0x3fffcbbb48, asid=0): 0x101013b48
275496968000: board.processor.switch.core.mmu.itb: lookup(vpn=0x13998, asid=0): hit ppn 0x10100a
275496968000: board.processor.switch.core.mmu.itb: translate(vpn=0x13998, asid=0): 0x10100a998
275496970000: board.processor.switch.core.mmu.dtb: lookup(vpn=0x3fffcbbb40, asid=0): hit ppn 0x101013
275496970000: board.processor.switch.core.mmu.dtb: translate(vpn=0x3fffcbbb40, asid=0): 0x101013b40
275496972000: board.processor.switch.core.mmu.itb: lookup(vpn=0x13998, asid=0): hit ppn 0x10100a
275496972000: board.processor.switch.core.mmu.itb: translate(vpn=0x13998, asid=0): 0x10100a998
275496974000: board.processor.switch.core.mmu.dtb: lookup(vpn=0x3fffcbbb38, asid=0): hit ppn 0x101013
275496974000: board.processor.switch.core.mmu.dtb: translate(vpn=0x3fffcbbb38, asid=0): 0x101013b38
275496976000: board.processor.switch.core.mmu.itb: lookup(vpn=0x1399c, asid=0): hit ppn 0x10100a
275496976000: board.processor.switch.core.mmu.itb: translate(vpn=0x1399c, asid=0): 0x10100a99c
275496978000: board.processor.switch.core.mmu.itb: lookup(vpn=0x136cc, asid=0): hit ppn 0x10100a
275496978000: board.processor.switch.core.mmu.itb: translate(vpn=0x136cc, asid=0): 0x10100a6cc
275497043000: board.processor.switch.core.mmu.itb: lookup(vpn=0x136d0, asid=0): hit ppn 0x10100a
275497043000: board.processor.switch.core.mmu.itb: translate(vpn=0x136d0, asid=0): 0x10100a6d0
275497045000: board.processor.switch.core.mmu.itb: lookup(vpn=0x136d0, asid=0): hit ppn 0x10100a
275497045000: board.processor.switch.core.mmu.itb: translate(vpn=0x136d0, asid=0): 0x10100a6d0
275497047000: board.processor.switch.core.mmu.dtb: lookup(vpn=0x80788, asid=0): hit ppn 0x101087
275497047000: board.processor.switch.core.mmu.dtb: translate(vpn=0x80788, asid=0): 0x101087788
275497049000: board.processor.switch.core.mmu.itb: lookup(vpn=0x136d4, asid=0): hit ppn 0x10100a
275497049000: board.processor.switch.core.mmu.itb: translate(vpn=0x136d4, asid=0): 0x10100a6d4
275497051000: board.processor.switch.core.mmu.itb: lookup(vpn=0x136d8, asid=0): hit ppn 0x10100a
275497051000: board.processor.switch.core.mmu.itb: translate(vpn=0x136d8, asid=0): 0x10100a6d8
275497053000: board.processor.switch.core.mmu.itb: lookup(vpn=0x136dc, asid=0): hit ppn 0x10100a
275497053000: board.processor.switch.core.mmu.itb: translate(vpn=0x136dc, asid=0): 0x10100a6dc
275497055000: board.processor.switch.core.mmu.itb: lookup(vpn=0x136dc, asid=0): hit ppn 0x10100a
275497055000: board.processor.switch.core.mmu.itb: translate(vpn=0x136dc, asid=0): 0x10100a6dc
275497057000: board.processor.switch.core.mmu.itb: lookup(vpn=0x136e0, asid=0): hit ppn 0x10100a
275497057000: board.processor.switch.core.mmu.itb: translate(vpn=0x136e0, asid=0): 0x10100a6e0
275497059000: board.processor.switch.core.mmu.itb: lookup(vpn=0x136e4, asid=0): hit ppn 0x10100a
275497059000: board.processor.switch.core.mmu.itb: translate(vpn=0x136e4, asid=0): 0x10100a6e4
275497061000: board.processor.switch.core.mmu.dtb: lookup(vpn=0x79078, asid=0): hit ppn 0x101069
275497061000: board.processor.switch.core.mmu.dtb: translate(vpn=0x79078, asid=0): 0x101069078
275497063000: board.processor.switch.core.mmu.itb: lookup(vpn=0x136e8, asid=0): hit ppn 0x10100a
275497063000: board.processor.switch.core.mmu.itb: translate(vpn=0x136e8, asid=0): 0x10100a6e8
275497065000: board.processor.switch.core.mmu.itb: lookup(vpn=0x136ec, asid=0): hit ppn 0x10100a
275497065000: board.processor.switch.core.mmu.itb: translate(vpn=0x136ec, asid=0): 0x10100a6ec
275497067000: board.processor.switch.core.mmu.itb: lookup(vpn=0x136f0, asid=0): hit ppn 0x10100a
275497067000: board.processor.switch.core.mmu.itb: translate(vpn=0x136f0, asid=0): 0x10100a6f0
275497069000: board.processor.switch.core.mmu.itb: lookup(vpn=0x136f4, asid=0): hit ppn 0x10100a
275497069000: board.processor.switch.core.mmu.itb: translate(vpn=0x136f4, asid=0): 0x10100a6f4
275497071000: board.processor.switch.core.mmu.dtb: lookup(vpn=0x79120, asid=0): hit ppn 0x101069
275497071000: board.processor.switch.core.mmu.dtb: translate(vpn=0x79120, asid=0): 0x101069120
275497073000: board.processor.switch.core.mmu.itb: lookup(vpn=0x136f8, asid=0): hit ppn 0x10100a
275497073000: board.processor.switch.core.mmu.itb: translate(vpn=0x136f8, asid=0): 0x10100a6f8
275497075000: board.processor.switch.core.mmu.itb: lookup(vpn=0x136fc, asid=0): hit ppn 0x10100a
275497075000: board.processor.switch.core.mmu.itb: translate(vpn=0x136fc, asid=0): 0x10100a6fc
275497077000: board.processor.switch.core.mmu.itb: lookup(vpn=0x136fc, asid=0): hit ppn 0x10100a
275497077000: board.processor.switch.core.mmu.itb: translate(vpn=0x136fc, asid=0): 0x10100a6fc
275497079000: board.processor.switch.core.mmu.itb: lookup(vpn=0x13700, asid=0): hit ppn 0x10100a
275497079000: board.processor.switch.core.mmu.itb: translate(vpn=0x13700, asid=0): 0x10100a700
275497144000: board.processor.switch.core.mmu.itb: lookup(vpn=0x13aa0, asid=0): hit ppn 0x10100a
275497144000: board.processor.switch.core.mmu.itb: translate(vpn=0x13aa0, asid=0): 0x10100aaa0
275497209000: board.processor.switch.core.mmu.itb: lookup(vpn=0x13aa4, asid=0): hit ppn 0x10100a
275497209000: board.processor.switch.core.mmu.itb: translate(vpn=0x13aa4, asid=0): 0x10100aaa4
275497211000: board.processor.switch.core.mmu.itb: lookup(vpn=0x13aa8, asid=0): hit ppn 0x10100a
275497211000: board.processor.switch.core.mmu.itb: translate(vpn=0x13aa8, asid=0): 0x10100aaa8
275497213000: board.processor.switch.core.mmu.dtb: lookup(vpn=0x3fffcbbb28, asid=0): hit ppn 0x101013
275497213000: board.processor.switch.core.mmu.dtb: translate(vpn=0x3fffcbbb28, asid=0): 0x101013b28
275497215000: board.processor.switch.core.mmu.itb: lookup(vpn=0x13aa8, asid=0): hit ppn 0x10100a
275497215000: board.processor.switch.core.mmu.itb: translate(vpn=0x13aa8, asid=0): 0x10100aaa8
275497217000: board.processor.switch.core.mmu.itb: lookup(vpn=0x13aac, asid=0): hit ppn 0x10100a
275497217000: board.processor.switch.core.mmu.itb: translate(vpn=0x13aac, asid=0): 0x10100aaac
275497219000: board.processor.switch.core.mmu.itb: lookup(vpn=0x13aac, asid=0): hit ppn 0x10100a
275497219000: board.processor.switch.core.mmu.itb: translate(vpn=0x13aac, asid=0): 0x10100aaac
275497221000: board.processor.switch.core.mmu.itb: lookup(vpn=0x13ab0, asid=0): hit ppn 0x10100a
275497221000: board.processor.switch.core.mmu.itb: translate(vpn=0x13ab0, asid=0): 0x10100aab0
275497223000: board.processor.switch.core.mmu.itb: lookup(vpn=0x13ab0, asid=0): hit ppn 0x10100a
275497223000: board.processor.switch.core.mmu.itb: translate(vpn=0x13ab0, asid=0): 0x10100aab0
275497225000: board.processor.switch.core.mmu.itb: lookup(vpn=0x13ab4, asid=0): hit ppn 0x10100a
275497225000: board.processor.switch.core.mmu.itb: translate(vpn=0x13ab4, asid=0): 0x10100aab4
275497227000: board.processor.switch.core.mmu.itb: lookup(vpn=0x13ab4, asid=0): hit ppn 0x10100a
275497227000: board.processor.switch.core.mmu.itb: translate(vpn=0x13ab4, asid=0): 0x10100aab4
275497229000: board.processor.switch.core.mmu.itb: lookup(vpn=0x13ab8, asid=0): hit ppn 0x10100a
275497229000: board.processor.switch.core.mmu.itb: translate(vpn=0x13ab8, asid=0): 0x10100aab8
275497231000: board.processor.switch.core.mmu.itb: lookup(vpn=0x13ab8, asid=0): hit ppn 0x10100a
275497231000: board.processor.switch.core.mmu.itb: translate(vpn=0x13ab8, asid=0): 0x10100aab8
275497233000: board.processor.switch.core.mmu.itb: lookup(vpn=0x13abc, asid=0): hit ppn 0x10100a
275497233000: board.processor.switch.core.mmu.itb: translate(vpn=0x13abc, asid=0): 0x10100aabc
275497235000: board.processor.switch.core.mmu.itb: lookup(vpn=0x13abc, asid=0): hit ppn 0x10100a
275497235000: board.processor.switch.core.mmu.itb: translate(vpn=0x13abc, asid=0): 0x10100aabc
275497237000: board.processor.switch.core.mmu.itb: lookup(vpn=0x13ac0, asid=0): hit ppn 0x10100a
275497237000: board.processor.switch.core.mmu.itb: translate(vpn=0x13ac0, asid=0): 0x10100aac0
275497302000: board.processor.switch.core.mmu.itb: lookup(vpn=0x13ac0, asid=0): hit ppn 0x10100a
275497302000: board.processor.switch.core.mmu.itb: translate(vpn=0x13ac0, asid=0): 0x10100aac0
275497304000: board.processor.switch.core.mmu.itb: lookup(vpn=0x13ac4, asid=0): hit ppn 0x10100a
275497304000: board.processor.switch.core.mmu.itb: translate(vpn=0x13ac4, asid=0): 0x10100aac4
275497306000: board.processor.switch.core.mmu.itb: lookup(vpn=0x13ac4, asid=0): hit ppn 0x10100a
275497306000: board.processor.switch.core.mmu.itb: translate(vpn=0x13ac4, asid=0): 0x10100aac4
275497308000: board.processor.switch.core.mmu.itb: lookup(vpn=0x13ac8, asid=0): hit ppn 0x10100a
275497308000: board.processor.switch.core.mmu.itb: translate(vpn=0x13ac8, asid=0): 0x10100aac8
275497310000: board.processor.switch.core.mmu.itb: lookup(vpn=0x13ac8, asid=0): hit ppn 0x10100a
275497310000: board.processor.switch.core.mmu.itb: translate(vpn=0x13ac8, asid=0): 0x10100aac8
275497312000: board.processor.switch.core.mmu.dtb: lookup(vpn=0x79908, asid=0): hit ppn 0x101069
275497312000: board.processor.switch.core.mmu.dtb: translate(vpn=0x79908, asid=0): 0x101069908
275497377000: board.processor.switch.core.mmu.itb: lookup(vpn=0x13acc, asid=0): hit ppn 0x10100a
275497377000: board.processor.switch.core.mmu.itb: translate(vpn=0x13acc, asid=0): 0x10100aacc
275497379000: board.processor.switch.core.mmu.itb: lookup(vpn=0x13acc, asid=0): hit ppn 0x10100a
275497379000: board.processor.switch.core.mmu.itb: translate(vpn=0x13acc, asid=0): 0x10100aacc
275497381000: board.processor.switch.core.mmu.itb: lookup(vpn=0x13ad0, asid=0): hit ppn 0x10100a
275497381000: board.processor.switch.core.mmu.itb: translate(vpn=0x13ad0, asid=0): 0x10100aad0
275497383000: board.processor.switch.core.mmu.itb: lookup(vpn=0x13ad0, asid=0): hit ppn 0x10100a
275497383000: board.processor.switch.core.mmu.itb: translate(vpn=0x13ad0, asid=0): 0x10100aad0
275497385000: board.processor.switch.core.mmu.itb: lookup(vpn=0x13ad4, asid=0): hit ppn 0x10100a
275497385000: board.processor.switch.core.mmu.itb: translate(vpn=0x13ad4, asid=0): 0x10100aad4
275497387000: board.processor.switch.core.mmu.itb: lookup(vpn=0x13ad8, asid=0): hit ppn 0x10100a
275497387000: board.processor.switch.core.mmu.itb: translate(vpn=0x13ad8, asid=0): 0x10100aad8
275497389000: board.processor.switch.core.mmu.itb: lookup(vpn=0x13bd4, asid=0): hit ppn 0x10100a
275497389000: board.processor.switch.core.mmu.itb: translate(vpn=0x13bd4, asid=0): 0x10100abd4
275497454000: board.processor.switch.core.mmu.itb: lookup(vpn=0x13bd8, asid=0): hit ppn 0x10100a
275497454000: board.processor.switch.core.mmu.itb: translate(vpn=0x13bd8, asid=0): 0x10100abd8
275497456000: board.processor.switch.core.mmu.itb: lookup(vpn=0x13bd8, asid=0): hit ppn 0x10100a
275497456000: board.processor.switch.core.mmu.itb: translate(vpn=0x13bd8, asid=0): 0x10100abd8
275497458000: board.processor.switch.core.mmu.itb: lookup(vpn=0x13bdc, asid=0): hit ppn 0x10100a
275497458000: board.processor.switch.core.mmu.itb: translate(vpn=0x13bdc, asid=0): 0x10100abdc
275497460000: board.processor.switch.core.mmu.itb: lookup(vpn=0x13bdc, asid=0): hit ppn 0x10100a
275497460000: board.processor.switch.core.mmu.itb: translate(vpn=0x13bdc, asid=0): 0x10100abdc
275497462000: board.processor.switch.core.mmu.itb: lookup(vpn=0x13be0, asid=0): hit ppn 0x10100a
275497462000: board.processor.switch.core.mmu.itb: translate(vpn=0x13be0, asid=0): 0x10100abe0
275497464000: board.processor.switch.core.mmu.itb: lookup(vpn=0x13be4, asid=0): hit ppn 0x10100a
275497464000: board.processor.switch.core.mmu.itb: translate(vpn=0x13be4, asid=0): 0x10100abe4
275497466000: board.processor.switch.core.mmu.itb: lookup(vpn=0x13be4, asid=0): hit ppn 0x10100a
275497466000: board.processor.switch.core.mmu.itb: translate(vpn=0x13be4, asid=0): 0x10100abe4
275497468000: board.processor.switch.core.mmu.itb: lookup(vpn=0x13be8, asid=0): hit ppn 0x10100a
275497468000: board.processor.switch.core.mmu.itb: translate(vpn=0x13be8, asid=0): 0x10100abe8
275497470000: board.processor.switch.core.mmu.itb: lookup(vpn=0x13bf4, asid=0): hit ppn 0x10100a
275497470000: board.processor.switch.core.mmu.itb: translate(vpn=0x13bf4, asid=0): 0x10100abf4
275497472000: board.processor.switch.core.mmu.itb: lookup(vpn=0x13bf8, asid=0): hit ppn 0x10100a
275497472000: board.processor.switch.core.mmu.itb: translate(vpn=0x13bf8, asid=0): 0x10100abf8
275497474000: board.processor.switch.core.mmu.itb: lookup(vpn=0x13bf8, asid=0): hit ppn 0x10100a
275497474000: board.processor.switch.core.mmu.itb: translate(vpn=0x13bf8, asid=0): 0x10100abf8
275497476000: board.processor.switch.core.mmu.itb: lookup(vpn=0x13bfc, asid=0): hit ppn 0x10100a
275497476000: board.processor.switch.core.mmu.itb: translate(vpn=0x13bfc, asid=0): 0x10100abfc
275497478000: board.processor.switch.core.mmu.itb: lookup(vpn=0x13be8, asid=0): hit ppn 0x10100a
275497478000: board.processor.switch.core.mmu.itb: translate(vpn=0x13be8, asid=0): 0x10100abe8
275497480000: board.processor.switch.core.mmu.dtb: lookup(vpn=0x7990c, asid=0): hit ppn 0x101069
275497480000: board.processor.switch.core.mmu.dtb: translate(vpn=0x7990c, asid=0): 0x10106990c
275497482000: board.processor.switch.core.mmu.itb: lookup(vpn=0x13bec, asid=0): hit ppn 0x10100a
275497482000: board.processor.switch.core.mmu.itb: translate(vpn=0x13bec, asid=0): 0x10100abec
275497484000: board.processor.switch.core.mmu.itb: lookup(vpn=0x13bec, asid=0): hit ppn 0x10100a
275497484000: board.processor.switch.core.mmu.itb: translate(vpn=0x13bec, asid=0): 0x10100abec
275497486000: board.processor.switch.core.mmu.itb: lookup(vpn=0x13bf0, asid=0): hit ppn 0x10100a
275497486000: board.processor.switch.core.mmu.itb: translate(vpn=0x13bf0, asid=0): 0x10100abf0
275497488000: board.processor.switch.core.mmu.itb: lookup(vpn=0x13bf0, asid=0): hit ppn 0x10100a
275497488000: board.processor.switch.core.mmu.itb: translate(vpn=0x13bf0, asid=0): 0x10100abf0
275497490000: board.processor.switch.core.mmu.itb: lookup(vpn=0x13bf4, asid=0): hit ppn 0x10100a
275497490000: board.processor.switch.core.mmu.itb: translate(vpn=0x13bf4, asid=0): 0x10100abf4
275497492000: board.processor.switch.core.mmu.itb: lookup(vpn=0x13bf4, asid=0): hit ppn 0x10100a
275497492000: board.processor.switch.core.mmu.itb: translate(vpn=0x13bf4, asid=0): 0x10100abf4
275497494000: board.processor.switch.core.mmu.itb: lookup(vpn=0x13bf8, asid=0): hit ppn 0x10100a
275497494000: board.processor.switch.core.mmu.itb: translate(vpn=0x13bf8, asid=0): 0x10100abf8
275497496000: board.processor.switch.core.mmu.itb: lookup(vpn=0x13bf8, asid=0): hit ppn 0x10100a
275497496000: board.processor.switch.core.mmu.itb: translate(vpn=0x13bf8, asid=0): 0x10100abf8
275497498000: board.processor.switch.core.mmu.itb: lookup(vpn=0x13bfc, asid=0): hit ppn 0x10100a
275497498000: board.processor.switch.core.mmu.itb: translate(vpn=0x13bfc, asid=0): 0x10100abfc
275497500000: board.processor.switch.core.mmu.itb: lookup(vpn=0x13be8, asid=0): hit ppn 0x10100a
275497500000: board.processor.switch.core.mmu.itb: translate(vpn=0x13be8, asid=0): 0x10100abe8
275497502000: board.processor.switch.core.mmu.dtb: lookup(vpn=0x79910, asid=0): hit ppn 0x101069
275497502000: board.processor.switch.core.mmu.dtb: translate(vpn=0x79910, asid=0): 0x101069910
275497504000: board.processor.switch.core.mmu.itb: lookup(vpn=0x13bec, asid=0): hit ppn 0x10100a
275497504000: board.processor.switch.core.mmu.itb: translate(vpn=0x13bec, asid=0): 0x10100abec
275497506000: board.processor.switch.core.mmu.itb: lookup(vpn=0x13bec, asid=0): hit ppn 0x10100a
275497506000: board.processor.switch.core.mmu.itb: translate(vpn=0x13bec, asid=0): 0x10100abec
275497508000: board.processor.switch.core.mmu.itb: lookup(vpn=0x13bf0, asid=0): hit ppn 0x10100a
275497508000: board.processor.switch.core.mmu.itb: translate(vpn=0x13bf0, asid=0): 0x10100abf0
275497510000: board.processor.switch.core.mmu.itb: lookup(vpn=0x13bf0, asid=0): hit ppn 0x10100a
275497510000: board.processor.switch.core.mmu.itb: translate(vpn=0x13bf0, asid=0): 0x10100abf0
275497512000: board.processor.switch.core.mmu.itb: lookup(vpn=0x13bf4, asid=0): hit ppn 0x10100a
275497512000: board.processor.switch.core.mmu.itb: translate(vpn=0x13bf4, asid=0): 0x10100abf4
275497514000: board.processor.switch.core.mmu.itb: lookup(vpn=0x13bf4, asid=0): hit ppn 0x10100a
275497514000: board.processor.switch.core.mmu.itb: translate(vpn=0x13bf4, asid=0): 0x10100abf4
275497516000: board.processor.switch.core.mmu.itb: lookup(vpn=0x13bf8, asid=0): hit ppn 0x10100a
275497516000: board.processor.switch.core.mmu.itb: translate(vpn=0x13bf8, asid=0): 0x10100abf8
275497518000: board.processor.switch.core.mmu.itb: lookup(vpn=0x13bf8, asid=0): hit ppn 0x10100a
275497518000: board.processor.switch.core.mmu.itb: translate(vpn=0x13bf8, asid=0): 0x10100abf8
275497520000: board.processor.switch.core.mmu.itb: lookup(vpn=0x13bfc, asid=0): hit ppn 0x10100a
275497520000: board.processor.switch.core.mmu.itb: translate(vpn=0x13bfc, asid=0): 0x10100abfc
275497522000: board.processor.switch.core.mmu.itb: lookup(vpn=0x13be8, asid=0): hit ppn 0x10100a
275497522000: board.processor.switch.core.mmu.itb: translate(vpn=0x13be8, asid=0): 0x10100abe8
275497524000: board.processor.switch.core.mmu.dtb: lookup(vpn=0x79914, asid=0): hit ppn 0x101069
275497524000: board.processor.switch.core.mmu.dtb: translate(vpn=0x79914, asid=0): 0x101069914
275497526000: board.processor.switch.core.mmu.itb: lookup(vpn=0x13bec, asid=0): hit ppn 0x10100a
275497526000: board.processor.switch.core.mmu.itb: translate(vpn=0x13bec, asid=0): 0x10100abec
275497528000: board.processor.switch.core.mmu.itb: lookup(vpn=0x13bec, asid=0): hit ppn 0x10100a
275497528000: board.processor.switch.core.mmu.itb: translate(vpn=0x13bec, asid=0): 0x10100abec
275497530000: board.processor.switch.core.mmu.itb: lookup(vpn=0x13bf0, asid=0): hit ppn 0x10100a
275497530000: board.processor.switch.core.mmu.itb: translate(vpn=0x13bf0, asid=0): 0x10100abf0
275497532000: board.processor.switch.core.mmu.itb: lookup(vpn=0x13bf0, asid=0): hit ppn 0x10100a
275497532000: board.processor.switch.core.mmu.itb: translate(vpn=0x13bf0, asid=0): 0x10100abf0
275497534000: board.processor.switch.core.mmu.itb: lookup(vpn=0x13bf4, asid=0): hit ppn 0x10100a
275497534000: board.processor.switch.core.mmu.itb: translate(vpn=0x13bf4, asid=0): 0x10100abf4
275497536000: board.processor.switch.core.mmu.itb: lookup(vpn=0x13bf4, asid=0): hit ppn 0x10100a
275497536000: board.processor.switch.core.mmu.itb: translate(vpn=0x13bf4, asid=0): 0x10100abf4
275497538000: board.processor.switch.core.mmu.itb: lookup(vpn=0x13bf8, asid=0): hit ppn 0x10100a
275497538000: board.processor.switch.core.mmu.itb: translate(vpn=0x13bf8, asid=0): 0x10100abf8
275497540000: board.processor.switch.core.mmu.itb: lookup(vpn=0x13bf8, asid=0): hit ppn 0x10100a
275497540000: board.processor.switch.core.mmu.itb: translate(vpn=0x13bf8, asid=0): 0x10100abf8
275497542000: board.processor.switch.core.mmu.itb: lookup(vpn=0x13bfc, asid=0): hit ppn 0x10100a
275497542000: board.processor.switch.core.mmu.itb: translate(vpn=0x13bfc, asid=0): 0x10100abfc
275497544000: board.processor.switch.core.mmu.itb: lookup(vpn=0x13bfc, asid=0): hit ppn 0x10100a
275497544000: board.processor.switch.core.mmu.itb: translate(vpn=0x13bfc, asid=0): 0x10100abfc
275497546000: board.processor.switch.core.mmu.itb: lookup(vpn=0x13c00, asid=0): hit ppn 0x10100a
275497546000: board.processor.switch.core.mmu.itb: translate(vpn=0x13c00, asid=0): 0x10100ac00
275497611000: board.processor.switch.core.mmu.dtb: lookup(vpn=0x79108, asid=0): hit ppn 0x101069
275497611000: board.processor.switch.core.mmu.dtb: translate(vpn=0x79108, asid=0): 0x101069108
275497613000: board.processor.switch.core.mmu.itb: lookup(vpn=0x13c00, asid=0): hit ppn 0x10100a
275497613000: board.processor.switch.core.mmu.itb: translate(vpn=0x13c00, asid=0): 0x10100ac00
275497615000: board.processor.switch.core.mmu.itb: lookup(vpn=0x13c04, asid=0): hit ppn 0x10100a
275497615000: board.processor.switch.core.mmu.itb: translate(vpn=0x13c04, asid=0): 0x10100ac04
275497617000: board.processor.switch.core.mmu.itb: lookup(vpn=0x13c04, asid=0): hit ppn 0x10100a
275497617000: board.processor.switch.core.mmu.itb: translate(vpn=0x13c04, asid=0): 0x10100ac04
275497619000: board.processor.switch.core.mmu.dtb: lookup(vpn=0x814b8, asid=0): miss ppn 0
275497619000: board.processor.switch.core.mmu.dtb.walker: Performing table walk for address 0x814b8
275497619000: board.processor.switch.core.mmu.dtb.walker: Loading level2 PTE from 0x100ca9000
275497620001: board.processor.switch.core.mmu.dtb.walker: Got level2 PTE: 0x40319801
275497620001: board.processor.switch.core.mmu.dtb.walker: Loading level1 PTE from 0x100c66000
275497622001: board.processor.switch.core.mmu.dtb.walker: Got level1 PTE: 0x4032e401
275497622001: board.processor.switch.core.mmu.dtb.walker: Loading level0 PTE from 0x100cb9408
275497624001: board.processor.switch.core.mmu.dtb.walker: Got level0 PTE: 0x404274d7
275497624001: board.processor.switch.core.mmu.dtb: insert(vpn=0x81000, asid=0): ppn=0x10109d pte=0x404274d7 size=0x1000
275497624001: board.processor.switch.core.mmu.dtb: lookup(vpn=0x814b8, asid=0): hit ppn 0x10109d
275497704000: board.processor.switch.core.mmu.itb: lookup(vpn=0x13c08, asid=0): hit ppn 0x10100a
275497704000: board.processor.switch.core.mmu.itb: translate(vpn=0x13c08, asid=0): 0x10100ac08
275497706000: board.processor.switch.core.mmu.dtb: lookup(vpn=0x79930, asid=0): hit ppn 0x101069
275497706000: board.processor.switch.core.mmu.dtb: translate(vpn=0x79930, asid=0): 0x101069930
275497708000: board.processor.switch.core.mmu.itb: lookup(vpn=0x13c0c, asid=0): hit ppn 0x10100a
275497708000: board.processor.switch.core.mmu.itb: translate(vpn=0x13c0c, asid=0): 0x10100ac0c
275497710000: board.processor.switch.core.mmu.itb: lookup(vpn=0x13c0c, asid=0): hit ppn 0x10100a
275497710000: board.processor.switch.core.mmu.itb: translate(vpn=0x13c0c, asid=0): 0x10100ac0c
275497712000: board.processor.switch.core.mmu.itb: lookup(vpn=0x13c10, asid=0): hit ppn 0x10100a
275497712000: board.processor.switch.core.mmu.itb: translate(vpn=0x13c10, asid=0): 0x10100ac10
275497714000: board.processor.switch.core.mmu.itb: lookup(vpn=0x13c10, asid=0): hit ppn 0x10100a
275497714000: board.processor.switch.core.mmu.itb: translate(vpn=0x13c10, asid=0): 0x10100ac10
275497716000: board.processor.switch.core.mmu.itb: lookup(vpn=0x13c14, asid=0): hit ppn 0x10100a
275497716000: board.processor.switch.core.mmu.itb: translate(vpn=0x13c14, asid=0): 0x10100ac14
275497718000: board.processor.switch.core.mmu.itb: lookup(vpn=0x13c14, asid=0): hit ppn 0x10100a
275497718000: board.processor.switch.core.mmu.itb: translate(vpn=0x13c14, asid=0): 0x10100ac14
275497720000: board.processor.switch.core.mmu.itb: lookup(vpn=0x13c18, asid=0): hit ppn 0x10100a
275497720000: board.processor.switch.core.mmu.itb: translate(vpn=0x13c18, asid=0): 0x10100ac18
275497722000: board.processor.switch.core.mmu.itb: lookup(vpn=0x140ec, asid=0): hit ppn 0x10102e
275497722000: board.processor.switch.core.mmu.itb: translate(vpn=0x140ec, asid=0): 0x10102e0ec
275497787000: board.processor.switch.core.mmu.itb: lookup(vpn=0x140f0, asid=0): hit ppn 0x10102e
275497787000: board.processor.switch.core.mmu.itb: translate(vpn=0x140f0, asid=0): 0x10102e0f0
275497789000: board.processor.switch.core.mmu.itb: lookup(vpn=0x140f4, asid=0): hit ppn 0x10102e
275497789000: board.processor.switch.core.mmu.itb: translate(vpn=0x140f4, asid=0): 0x10102e0f4
275497791000: board.processor.switch.core.mmu.itb: lookup(vpn=0x140f8, asid=0): hit ppn 0x10102e
275497791000: board.processor.switch.core.mmu.itb: translate(vpn=0x140f8, asid=0): 0x10102e0f8
275497793000: board.processor.switch.core.mmu.itb: lookup(vpn=0x140fc, asid=0): hit ppn 0x10102e
275497793000: board.processor.switch.core.mmu.itb: translate(vpn=0x140fc, asid=0): 0x10102e0fc
275497795000: board.processor.switch.core.mmu.itb: lookup(vpn=0x140fc, asid=0): hit ppn 0x10102e
275497795000: board.processor.switch.core.mmu.itb: translate(vpn=0x140fc, asid=0): 0x10102e0fc
275497797000: board.processor.switch.core.mmu.itb: lookup(vpn=0x14100, asid=0): hit ppn 0x10102e
275497797000: board.processor.switch.core.mmu.itb: translate(vpn=0x14100, asid=0): 0x10102e100
275497862000: board.processor.switch.core.mmu.itb: lookup(vpn=0x14100, asid=0): hit ppn 0x10102e
275497862000: board.processor.switch.core.mmu.itb: translate(vpn=0x14100, asid=0): 0x10102e100
275497864000: board.processor.switch.core.mmu.itb: lookup(vpn=0x14104, asid=0): hit ppn 0x10102e
275497864000: board.processor.switch.core.mmu.itb: translate(vpn=0x14104, asid=0): 0x10102e104
275497866000: board.processor.switch.core.mmu.dtb: lookup(vpn=0x79108, asid=0): hit ppn 0x101069
275497866000: board.processor.switch.core.mmu.dtb: translate(vpn=0x79108, asid=0): 0x101069108
275497868000: board.processor.switch.core.mmu.itb: lookup(vpn=0x14108, asid=0): hit ppn 0x10102e
275497868000: board.processor.switch.core.mmu.itb: translate(vpn=0x14108, asid=0): 0x10102e108
275497870000: board.processor.switch.core.mmu.itb: lookup(vpn=0x1410c, asid=0): hit ppn 0x10102e
275497870000: board.processor.switch.core.mmu.itb: translate(vpn=0x1410c, asid=0): 0x10102e10c
275497872000: board.processor.switch.core.mmu.itb: lookup(vpn=0x1410c, asid=0): hit ppn 0x10102e
275497872000: board.processor.switch.core.mmu.itb: translate(vpn=0x1410c, asid=0): 0x10102e10c
275497874000: board.processor.switch.core.mmu.dtb: lookup(vpn=0x814b8, asid=0): hit ppn 0x10109d
275497874000: board.processor.switch.core.mmu.dtb: translate(vpn=0x814b8, asid=0): 0x10109d4b8
275497876000: board.processor.switch.core.mmu.itb: lookup(vpn=0x14110, asid=0): hit ppn 0x10102e
275497876000: board.processor.switch.core.mmu.itb: translate(vpn=0x14110, asid=0): 0x10102e110
275497878000: board.processor.switch.core.mmu.itb: lookup(vpn=0x14114, asid=0): hit ppn 0x10102e
275497878000: board.processor.switch.core.mmu.itb: translate(vpn=0x14114, asid=0): 0x10102e114
275497880000: board.processor.switch.core.mmu.itb: lookup(vpn=0x14118, asid=0): hit ppn 0x10102e
275497880000: board.processor.switch.core.mmu.itb: translate(vpn=0x14118, asid=0): 0x10102e118
275497882000: board.processor.switch.core.mmu.dtb: lookup(vpn=0x814d8, asid=0): hit ppn 0x10109d
275497882000: board.processor.switch.core.mmu.dtb: translate(vpn=0x814d8, asid=0): 0x10109d4d8
275497947000: board.processor.switch.core.mmu.itb: lookup(vpn=0x14118, asid=0): hit ppn 0x10102e
275497947000: board.processor.switch.core.mmu.itb: translate(vpn=0x14118, asid=0): 0x10102e118
275497949000: board.processor.switch.core.mmu.itb: lookup(vpn=0x1411c, asid=0): hit ppn 0x10102e
275497949000: board.processor.switch.core.mmu.itb: translate(vpn=0x1411c, asid=0): 0x10102e11c
275497951000: board.processor.switch.core.mmu.itb: lookup(vpn=0x1411c, asid=0): hit ppn 0x10102e
275497951000: board.processor.switch.core.mmu.itb: translate(vpn=0x1411c, asid=0): 0x10102e11c
275497953000: board.processor.switch.core.mmu.itb: lookup(vpn=0x14120, asid=0): hit ppn 0x10102e
275497953000: board.processor.switch.core.mmu.itb: translate(vpn=0x14120, asid=0): 0x10102e120
275497955000: board.processor.switch.core.mmu.itb: lookup(vpn=0x114c0, asid=0): miss ppn 0
275497955000: board.processor.switch.core.mmu.itb.walker: Performing table walk for address 0x114c0
275497955000: board.processor.switch.core.mmu.itb.walker: Loading level2 PTE from 0x100ca9000
275497956001: board.processor.switch.core.mmu.itb.walker: Got level2 PTE: 0x40319801
275497956001: board.processor.switch.core.mmu.itb.walker: Loading level1 PTE from 0x100c66000
275497958001: board.processor.switch.core.mmu.itb.walker: Got level1 PTE: 0x4032e401
275497958001: board.processor.switch.core.mmu.itb.walker: Loading level0 PTE from 0x100cb9088
275497960001: board.processor.switch.core.mmu.itb.walker: Got level0 PTE: 0x9e07a85b
275497960001: board.processor.switch.core.mmu.itb: insert(vpn=0x11000, asid=0): ppn=0x2781ea pte=0x9e07a85b size=0x1000
275497960001: board.processor.switch.core.mmu.itb: lookup(vpn=0x114c0, asid=0): hit ppn 0x2781ea
275498054000: board.processor.switch.core.mmu.itb: lookup(vpn=0x114c4, asid=0): hit ppn 0x2781ea
275498054000: board.processor.switch.core.mmu.itb: translate(vpn=0x114c4, asid=0): 0x2781ea4c4
275498056000: board.processor.switch.core.mmu.dtb: lookup(vpn=0x7f560, asid=0): hit ppn 0x101034
275498056000: board.processor.switch.core.mmu.dtb: translate(vpn=0x7f560, asid=0): 0x101034560
275498058000: board.processor.switch.core.mmu.itb: lookup(vpn=0x114c8, asid=0): hit ppn 0x2781ea
275498058000: board.processor.switch.core.mmu.itb: translate(vpn=0x114c8, asid=0): 0x2781ea4c8
275498060000: board.processor.switch.core.mmu.itb: lookup(vpn=0x114c8, asid=0): hit ppn 0x2781ea
275498060000: board.processor.switch.core.mmu.itb: translate(vpn=0x114c8, asid=0): 0x2781ea4c8
275498062000: board.processor.switch.core.mmu.itb: lookup(vpn=0x14120, asid=0): hit ppn 0x10102e
275498062000: board.processor.switch.core.mmu.itb: translate(vpn=0x14120, asid=0): 0x10102e120
275498064000: board.processor.switch.core.mmu.itb: lookup(vpn=0x13f68, asid=0): hit ppn 0x10100a
275498064000: board.processor.switch.core.mmu.itb: translate(vpn=0x13f68, asid=0): 0x10100af68
275498157000: board.processor.switch.core.mmu.dtb: lookup(vpn=0x3fffcbbb80, asid=0): hit ppn 0x101013
275498157000: board.processor.switch.core.mmu.dtb: translate(vpn=0x3fffcbbb80, asid=0): 0x101013b80
275498159000: board.processor.switch.core.mmu.itb: lookup(vpn=0x13f6c, asid=0): hit ppn 0x10100a
275498159000: board.processor.switch.core.mmu.itb: translate(vpn=0x13f6c, asid=0): 0x10100af6c
275498161000: board.processor.switch.core.mmu.dtb: lookup(vpn=0x3fffcbbb78, asid=0): hit ppn 0x101013
275498161000: board.processor.switch.core.mmu.dtb: translate(vpn=0x3fffcbbb78, asid=0): 0x101013b78
275498163000: board.processor.switch.core.mmu.itb: lookup(vpn=0x13f6c, asid=0): hit ppn 0x10100a
275498163000: board.processor.switch.core.mmu.itb: translate(vpn=0x13f6c, asid=0): 0x10100af6c
275498165000: board.processor.switch.core.mmu.dtb: lookup(vpn=0x3fffcbbb70, asid=0): hit ppn 0x101013
275498165000: board.processor.switch.core.mmu.dtb: translate(vpn=0x3fffcbbb70, asid=0): 0x101013b70
275498167000: board.processor.switch.core.mmu.itb: lookup(vpn=0x13f70, asid=0): hit ppn 0x10100a
275498167000: board.processor.switch.core.mmu.itb: translate(vpn=0x13f70, asid=0): 0x10100af70
275498169000: board.processor.switch.core.mmu.dtb: lookup(vpn=0x3fffcbbb68, asid=0): hit ppn 0x101013
275498169000: board.processor.switch.core.mmu.dtb: translate(vpn=0x3fffcbbb68, asid=0): 0x101013b68
275498171000: board.processor.switch.core.mmu.itb: lookup(vpn=0x13f70, asid=0): hit ppn 0x10100a
275498171000: board.processor.switch.core.mmu.itb: translate(vpn=0x13f70, asid=0): 0x10100af70
275498173000: board.processor.switch.core.mmu.dtb: lookup(vpn=0x3fffcbbb60, asid=0): hit ppn 0x101013
275498173000: board.processor.switch.core.mmu.dtb: translate(vpn=0x3fffcbbb60, asid=0): 0x101013b60
275498175000: board.processor.switch.core.mmu.itb: lookup(vpn=0x13f74, asid=0): hit ppn 0x10100a
275498175000: board.processor.switch.core.mmu.itb: translate(vpn=0x13f74, asid=0): 0x10100af74
275498177000: board.processor.switch.core.mmu.dtb: lookup(vpn=0x3fffcbbb58, asid=0): hit ppn 0x101013
275498177000: board.processor.switch.core.mmu.dtb: translate(vpn=0x3fffcbbb58, asid=0): 0x101013b58
275498179000: board.processor.switch.core.mmu.itb: lookup(vpn=0x13f74, asid=0): hit ppn 0x10100a
275498179000: board.processor.switch.core.mmu.itb: translate(vpn=0x13f74, asid=0): 0x10100af74
275498181000: board.processor.switch.core.mmu.dtb: lookup(vpn=0x3fffcbbb50, asid=0): hit ppn 0x101013
275498181000: board.processor.switch.core.mmu.dtb: translate(vpn=0x3fffcbbb50, asid=0): 0x101013b50
275498183000: board.processor.switch.core.mmu.itb: lookup(vpn=0x13f78, asid=0): hit ppn 0x10100a
275498183000: board.processor.switch.core.mmu.itb: translate(vpn=0x13f78, asid=0): 0x10100af78
275498185000: board.processor.switch.core.mmu.dtb: lookup(vpn=0x3fffcbbb48, asid=0): hit ppn 0x101013
275498185000: board.processor.switch.core.mmu.dtb: translate(vpn=0x3fffcbbb48, asid=0): 0x101013b48
275498187000: board.processor.switch.core.mmu.itb: lookup(vpn=0x13f78, asid=0): hit ppn 0x10100a
275498187000: board.processor.switch.core.mmu.itb: translate(vpn=0x13f78, asid=0): 0x10100af78
275498189000: board.processor.switch.core.mmu.dtb: lookup(vpn=0x3fffcbbb40, asid=0): hit ppn 0x101013
275498189000: board.processor.switch.core.mmu.dtb: translate(vpn=0x3fffcbbb40, asid=0): 0x101013b40
275498191000: board.processor.switch.core.mmu.itb: lookup(vpn=0x13f7c, asid=0): hit ppn 0x10100a
275498191000: board.processor.switch.core.mmu.itb: translate(vpn=0x13f7c, asid=0): 0x10100af7c
275498193000: board.processor.switch.core.mmu.dtb: lookup(vpn=0x3fffcbbb38, asid=0): hit ppn 0x101013
275498193000: board.processor.switch.core.mmu.dtb: translate(vpn=0x3fffcbbb38, asid=0): 0x101013b38
275498195000: board.processor.switch.core.mmu.itb: lookup(vpn=0x13f7c, asid=0): hit ppn 0x10100a
275498195000: board.processor.switch.core.mmu.itb: translate(vpn=0x13f7c, asid=0): 0x10100af7c
275498197000: board.processor.switch.core.mmu.dtb: lookup(vpn=0x3fffcbbb28, asid=0): hit ppn 0x101013
275498197000: board.processor.switch.core.mmu.dtb: translate(vpn=0x3fffcbbb28, asid=0): 0x101013b28
275498199000: board.processor.switch.core.mmu.itb: lookup(vpn=0x13f80, asid=0): hit ppn 0x10100a
275498199000: board.processor.switch.core.mmu.itb: translate(vpn=0x13f80, asid=0): 0x10100af80
275498264000: board.processor.switch.core.mmu.itb: lookup(vpn=0x138fc, asid=0): hit ppn 0x10100a
275498264000: board.processor.switch.core.mmu.itb: translate(vpn=0x138fc, asid=0): 0x10100a8fc
275498266000: board.processor.switch.core.mmu.dtb: lookup(vpn=0x3fffcbbb88, asid=0): hit ppn 0x101013
275498266000: board.processor.switch.core.mmu.dtb: translate(vpn=0x3fffcbbb88, asid=0): 0x101013b88
275498268000: board.processor.switch.core.mmu.itb: lookup(vpn=0x138fc, asid=0): hit ppn 0x10100a
275498268000: board.processor.switch.core.mmu.itb: translate(vpn=0x138fc, asid=0): 0x10100a8fc
275498270000: board.processor.switch.core.mmu.itb: lookup(vpn=0x13900, asid=0): hit ppn 0x10100a
275498270000: board.processor.switch.core.mmu.itb: translate(vpn=0x13900, asid=0): 0x10100a900
275498335000: board.processor.switch.core.mmu.dtb: lookup(vpn=0x3fffcbbb30, asid=0): hit ppn 0x101013
275498335000: board.processor.switch.core.mmu.dtb: translate(vpn=0x3fffcbbb30, asid=0): 0x101013b30
275498337000: board.processor.switch.core.mmu.itb: lookup(vpn=0x13900, asid=0): hit ppn 0x10100a
275498337000: board.processor.switch.core.mmu.itb: translate(vpn=0x13900, asid=0): 0x10100a900
275498339000: board.processor.switch.core.mmu.itb: lookup(vpn=0x13904, asid=0): hit ppn 0x10100a
275498339000: board.processor.switch.core.mmu.itb: translate(vpn=0x13904, asid=0): 0x10100a904
275498341000: board.processor.switch.core.mmu.itb: lookup(vpn=0x14938, asid=0): hit ppn 0x10102e
275498341000: board.processor.switch.core.mmu.itb: translate(vpn=0x14938, asid=0): 0x10102e938
275498343000: board.processor.switch.core.mmu.itb: lookup(vpn=0x14938, asid=0): hit ppn 0x10102e
275498343000: board.processor.switch.core.mmu.itb: translate(vpn=0x14938, asid=0): 0x10102e938
275498345000: board.processor.switch.core.mmu.itb: lookup(vpn=0x1493c, asid=0): hit ppn 0x10102e
275498345000: board.processor.switch.core.mmu.itb: translate(vpn=0x1493c, asid=0): 0x10102e93c
275498347000: board.processor.switch.core.mmu.dtb: lookup(vpn=0x814b8, asid=0): hit ppn 0x10109d
275498347000: board.processor.switch.core.mmu.dtb: translate(vpn=0x814b8, asid=0): 0x10109d4b8
275498349000: board.processor.switch.core.mmu.itb: lookup(vpn=0x14940, asid=0): hit ppn 0x10102e
275498349000: board.processor.switch.core.mmu.itb: translate(vpn=0x14940, asid=0): 0x10102e940
275498414000: board.processor.switch.core.mmu.itb: lookup(vpn=0x14944, asid=0): hit ppn 0x10102e
275498414000: board.processor.switch.core.mmu.itb: translate(vpn=0x14944, asid=0): 0x10102e944
275498416000: board.processor.switch.core.mmu.itb: lookup(vpn=0x14944, asid=0): hit ppn 0x10102e
275498416000: board.processor.switch.core.mmu.itb: translate(vpn=0x14944, asid=0): 0x10102e944
275498418000: board.processor.switch.core.mmu.itb: lookup(vpn=0x14948, asid=0): hit ppn 0x10102e
275498418000: board.processor.switch.core.mmu.itb: translate(vpn=0x14948, asid=0): 0x10102e948
275498420000: board.processor.switch.core.mmu.itb: lookup(vpn=0x148a0, asid=0): hit ppn 0x10102e
275498420000: board.processor.switch.core.mmu.itb: translate(vpn=0x148a0, asid=0): 0x10102e8a0
275498485000: board.processor.switch.core.mmu.dtb: lookup(vpn=0x3fffcbbba8, asid=0): hit ppn 0x101013
275498485000: board.processor.switch.core.mmu.dtb: translate(vpn=0x3fffcbbba8, asid=0): 0x101013ba8
275498487000: board.processor.switch.core.mmu.itb: lookup(vpn=0x148a4, asid=0): hit ppn 0x10102e
275498487000: board.processor.switch.core.mmu.itb: translate(vpn=0x148a4, asid=0): 0x10102e8a4
275498489000: board.processor.switch.core.mmu.itb: lookup(vpn=0x148a4, asid=0): hit ppn 0x10102e
275498489000: board.processor.switch.core.mmu.itb: translate(vpn=0x148a4, asid=0): 0x10102e8a4
275498491000: board.processor.switch.core.mmu.dtb: lookup(vpn=0x3fffcbbba0, asid=0): hit ppn 0x101013
275498491000: board.processor.switch.core.mmu.dtb: translate(vpn=0x3fffcbbba0, asid=0): 0x101013ba0
275498493000: board.processor.switch.core.mmu.itb: lookup(vpn=0x148a8, asid=0): hit ppn 0x10102e
275498493000: board.processor.switch.core.mmu.itb: translate(vpn=0x148a8, asid=0): 0x10102e8a8
275498495000: board.processor.switch.core.mmu.dtb: lookup(vpn=0x3fffcbbb90, asid=0): hit ppn 0x101013
275498495000: board.processor.switch.core.mmu.dtb: translate(vpn=0x3fffcbbb90, asid=0): 0x101013b90
275498497000: board.processor.switch.core.mmu.itb: lookup(vpn=0x148a8, asid=0): hit ppn 0x10102e
275498497000: board.processor.switch.core.mmu.itb: translate(vpn=0x148a8, asid=0): 0x10102e8a8
275498499000: board.processor.switch.core.mmu.dtb: lookup(vpn=0x3fffcbbb98, asid=0): hit ppn 0x101013
275498499000: board.processor.switch.core.mmu.dtb: translate(vpn=0x3fffcbbb98, asid=0): 0x101013b98
275498501000: board.processor.switch.core.mmu.itb: lookup(vpn=0x148ac, asid=0): hit ppn 0x10102e
275498501000: board.processor.switch.core.mmu.itb: translate(vpn=0x148ac, asid=0): 0x10102e8ac
275498503000: board.processor.switch.core.mmu.itb: lookup(vpn=0x148ac, asid=0): hit ppn 0x10102e
275498503000: board.processor.switch.core.mmu.itb: translate(vpn=0x148ac, asid=0): 0x10102e8ac
275498505000: board.processor.switch.core.mmu.itb: lookup(vpn=0x10510, asid=0): hit ppn 0x101011
275498505000: board.processor.switch.core.mmu.itb: translate(vpn=0x10510, asid=0): 0x101011510
275498507000: board.processor.switch.core.mmu.itb: lookup(vpn=0x10514, asid=0): hit ppn 0x101011
275498507000: board.processor.switch.core.mmu.itb: translate(vpn=0x10514, asid=0): 0x101011514
275498509000: board.processor.switch.core.mmu.dtb: lookup(vpn=0x3fffcbbbb8, asid=0): hit ppn 0x101013
275498509000: board.processor.switch.core.mmu.dtb: translate(vpn=0x3fffcbbbb8, asid=0): 0x101013bb8
275498511000: board.processor.switch.core.mmu.itb: lookup(vpn=0x10518, asid=0): hit ppn 0x101011
275498511000: board.processor.switch.core.mmu.itb: translate(vpn=0x10518, asid=0): 0x101011518
275498513000: board.processor.switch.core.mmu.itb: lookup(vpn=0x10518, asid=0): hit ppn 0x101011
275498513000: board.processor.switch.core.mmu.itb: translate(vpn=0x10518, asid=0): 0x101011518
275498515000: board.processor.switch.core.mmu.itb: lookup(vpn=0x1051c, asid=0): hit ppn 0x101011
275498515000: board.processor.switch.core.mmu.itb: translate(vpn=0x1051c, asid=0): 0x10101151c
275498517000: board.processor.switch.core.mmu.itb: lookup(vpn=0x10520, asid=0): hit ppn 0x101011
275498517000: board.processor.switch.core.mmu.itb: translate(vpn=0x10520, asid=0): 0x101011520
275498519000: board.processor.switch.core.mmu.itb: lookup(vpn=0x10520, asid=0): hit ppn 0x101011
275498519000: board.processor.switch.core.mmu.itb: translate(vpn=0x10520, asid=0): 0x101011520
275498521000: board.processor.switch.core.mmu.itb: lookup(vpn=0x10524, asid=0): hit ppn 0x101011
275498521000: board.processor.switch.core.mmu.itb: translate(vpn=0x10524, asid=0): 0x101011524
275498523000: board.processor.switch.core.mmu.itb: lookup(vpn=0x10524, asid=0): hit ppn 0x101011
275498523000: board.processor.switch.core.mmu.itb: translate(vpn=0x10524, asid=0): 0x101011524
275498525000: board.processor.switch.core.mmu.itb: lookup(vpn=0x10528, asid=0): hit ppn 0x101011
275498525000: board.processor.switch.core.mmu.itb: translate(vpn=0x10528, asid=0): 0x101011528
275498527000: board.processor.switch.core.mmu.itb: lookup(vpn=0x16c18, asid=0): miss ppn 0
275498527000: board.processor.switch.core.mmu.itb.walker: Performing table walk for address 0x16c18
275498527000: board.processor.switch.core.mmu.itb.walker: Loading level2 PTE from 0x100ca9000
275498528001: board.processor.switch.core.mmu.itb.walker: Got level2 PTE: 0x40319801
275498528001: board.processor.switch.core.mmu.itb.walker: Loading level1 PTE from 0x100c66000
275498530001: board.processor.switch.core.mmu.itb.walker: Got level1 PTE: 0x4032e401
275498530001: board.processor.switch.core.mmu.itb.walker: Loading level0 PTE from 0x100cb90b0
275498532001: board.processor.switch.core.mmu.itb.walker: Got level0 PTE: 0x4041445b
275498532001: board.processor.switch.core.mmu.itb: insert(vpn=0x16000, asid=0): ppn=0x101051 pte=0x4041445b size=0x1000
275498532001: board.processor.switch.core.mmu.itb: lookup(vpn=0x16c18, asid=0): hit ppn 0x101051
275498626000: board.processor.switch.core.mmu.itb: lookup(vpn=0x16c1c, asid=0): hit ppn 0x101051
275498626000: board.processor.switch.core.mmu.itb: translate(vpn=0x16c1c, asid=0): 0x101051c1c
275498628000: board.processor.switch.core.mmu.itb: lookup(vpn=0x16c20, asid=0): hit ppn 0x101051
275498628000: board.processor.switch.core.mmu.itb: translate(vpn=0x16c20, asid=0): 0x101051c20
275498630000: board.processor.switch.core.mmu.itb: lookup(vpn=0x16c24, asid=0): hit ppn 0x101051
275498630000: board.processor.switch.core.mmu.itb: translate(vpn=0x16c24, asid=0): 0x101051c24
275498632000: board.processor.switch.core.mmu.itb: lookup(vpn=0xffffffe0002011a4, asid=0): miss ppn 0
275498632000: board.processor.switch.core.mmu.itb.walker: Performing table walk for address 0xffffffe0002011a4
275498632000: board.processor.switch.core.mmu.itb.walker: Loading level2 PTE from 0x100ca9c00
275498724001: board.processor.switch.core.mmu.itb.walker: Got level2 PTE: 0x9ffffc01
275498724001: board.processor.switch.core.mmu.itb.walker: Loading level1 PTE from 0x27ffff008
275498803001: board.processor.switch.core.mmu.itb.walker: Got level1 PTE: 0x201000cb
275498803001: board.processor.switch.core.mmu.itb: insert(vpn=0xffffffe000200000, asid=0): ppn=0x80400 pte=0x201000cb size=0x200000
275498803001: board.processor.switch.core.mmu.itb: lookup(vpn=0xffffffe0002011a4, asid=0): hit ppn 0x80400
275498883000: board.processor.switch.core.mmu.itb: lookup(vpn=0xffffffe0002011a8, asid=0): hit ppn 0x80400
275498883000: board.processor.switch.core.mmu.itb: translate(vpn=0xffffffe0002011a8, asid=0): 0x804011a8
275498885000: board.processor.switch.core.mmu.itb: lookup(vpn=0xffffffe0002011b4, asid=0): hit ppn 0x80400
275498885000: board.processor.switch.core.mmu.itb: translate(vpn=0xffffffe0002011b4, asid=0): 0x804011b4
275498887000: board.processor.switch.core.mmu.dtb: lookup(vpn=0xffffffe080a86898, asid=0): miss ppn 0
275498887000: board.processor.switch.core.mmu.dtb.walker: Performing table walk for address 0xffffffe080a86898
275498887000: board.processor.switch.core.mmu.dtb.walker: Loading level2 PTE from 0x100ca9c10
275498888001: board.processor.switch.core.mmu.dtb.walker: Got level2 PTE: 0x9ffff401
275498888001: board.processor.switch.core.mmu.dtb.walker: Loading level1 PTE from 0x27fffd028
275498981001: board.processor.switch.core.mmu.dtb.walker: Got level1 PTE: 0x403000c7
275498981001: board.processor.switch.core.mmu.dtb: insert(vpn=0xffffffe080a00000, asid=0): ppn=0x100c00 pte=0x403000c7 size=0x200000
275498981001: board.processor.switch.core.mmu.dtb: lookup(vpn=0xffffffe080a86898, asid=0): hit ppn 0x100c00
275499075000: board.processor.switch.core.mmu.itb: lookup(vpn=0xffffffe0002011b8, asid=0): hit ppn 0x80400
275499075000: board.processor.switch.core.mmu.itb: translate(vpn=0xffffffe0002011b8, asid=0): 0x804011b8
275499077000: board.processor.switch.core.mmu.dtb: lookup(vpn=0xffffffe080a86890, asid=0): hit ppn 0x100c00
275499077000: board.processor.switch.core.mmu.dtb: translate(vpn=0xffffffe080a86890, asid=0): 0x100c86890
275499079000: board.processor.switch.core.mmu.itb: lookup(vpn=0xffffffe0002011bc, asid=0): hit ppn 0x80400
275499079000: board.processor.switch.core.mmu.itb: translate(vpn=0xffffffe0002011bc, asid=0): 0x804011bc
275499081000: board.processor.switch.core.mmu.itb: lookup(vpn=0xffffffe0002011bc, asid=0): hit ppn 0x80400
275499081000: board.processor.switch.core.mmu.itb: translate(vpn=0xffffffe0002011bc, asid=0): 0x804011bc
275499083000: board.processor.switch.core.mmu.dtb: lookup(vpn=0xffffffe080a7bee8, asid=0): hit ppn 0x100c00
275499083000: board.processor.switch.core.mmu.dtb: translate(vpn=0xffffffe080a7bee8, asid=0): 0x100c7bee8
275499162000: board.processor.switch.core.mmu.itb: lookup(vpn=0xffffffe0002011c0, asid=0): hit ppn 0x80400
275499162000: board.processor.switch.core.mmu.itb: translate(vpn=0xffffffe0002011c0, asid=0): 0x804011c0
275499227000: board.processor.switch.core.mmu.dtb: lookup(vpn=0xffffffe080a7bef8, asid=0): hit ppn 0x100c00
[...]
275534219000: board.processor.switch.core.mmu.itb: lookup(vpn=0xffffffe0002012e0, asid=0): hit ppn 0x80400
275534219000: board.processor.switch.core.mmu.itb: translate(vpn=0xffffffe0002012e0, asid=0): 0x804012e0
275534221000: board.processor.switch.core.mmu.itb: lookup(vpn=0xffffffe0002012e4, asid=0): hit ppn 0x80400
275534221000: board.processor.switch.core.mmu.itb: translate(vpn=0xffffffe0002012e4, asid=0): 0x804012e4
275534223000: board.processor.switch.core.mmu.itb: lookup(vpn=0xffffffe0002012e4, asid=0): hit ppn 0x80400
275534223000: board.processor.switch.core.mmu.itb: translate(vpn=0xffffffe0002012e4, asid=0): 0x804012e4
275534225000: board.processor.switch.core.mmu.itb: lookup(vpn=0xffffffe0002012e8, asid=0): hit ppn 0x80400
275534225000: board.processor.switch.core.mmu.itb: translate(vpn=0xffffffe0002012e8, asid=0): 0x804012e8
275534227000: board.processor.switch.core.mmu.itb: lookup(vpn=0xffffffe0002012e8, asid=0): hit ppn 0x80400
275534227000: board.processor.switch.core.mmu.itb: translate(vpn=0xffffffe0002012e8, asid=0): 0x804012e8
275534229000: board.processor.switch.core.mmu.itb: lookup(vpn=0xffffffe0002012ec, asid=0): hit ppn 0x80400
275534229000: board.processor.switch.core.mmu.itb: translate(vpn=0xffffffe0002012ec, asid=0): 0x804012ec
275534231000: board.processor.switch.core.mmu.dtb: lookup(vpn=0xffffffe080a86890, asid=0): hit ppn 0x100c00
275534231000: board.processor.switch.core.mmu.dtb: translate(vpn=0xffffffe080a86890, asid=0): 0x100c86890
275534233000: board.processor.switch.core.mmu.itb: lookup(vpn=0xffffffe0002012ec, asid=0): hit ppn 0x80400
275534233000: board.processor.switch.core.mmu.itb: translate(vpn=0xffffffe0002012ec, asid=0): 0x804012ec
275534235000: board.processor.switch.core.mmu.itb: lookup(vpn=0xffffffe0002012f0, asid=0): hit ppn 0x80400
275534235000: board.processor.switch.core.mmu.itb: translate(vpn=0xffffffe0002012f0, asid=0): 0x804012f0
275534237000: board.processor.switch.core.mmu.itb: lookup(vpn=0xffffffe0002012f0, asid=0): hit ppn 0x80400
275534237000: board.processor.switch.core.mmu.itb: translate(vpn=0xffffffe0002012f0, asid=0): 0x804012f0
275534239000: board.processor.switch.core.mmu.dtb: lookup(vpn=0xffffffe080a7bfe0, asid=0): hit ppn 0x100c00
275534239000: board.processor.switch.core.mmu.dtb: translate(vpn=0xffffffe080a7bfe0, asid=0): 0x100c7bfe0
275534241000: board.processor.switch.core.mmu.itb: lookup(vpn=0xffffffe0002012f4, asid=0): hit ppn 0x80400
275534241000: board.processor.switch.core.mmu.itb: translate(vpn=0xffffffe0002012f4, asid=0): 0x804012f4
275534243000: board.processor.switch.core.mmu.dtb: lookup(vpn=0xffffffe080a7bee0, asid=0): hit ppn 0x100c00
275534243000: board.processor.switch.core.mmu.dtb: translate(vpn=0xffffffe080a7bee0, asid=0): 0x100c7bee0
275534245000: board.processor.switch.core.mmu.itb: lookup(vpn=0xffffffe0002012f4, asid=0): hit ppn 0x80400
275534245000: board.processor.switch.core.mmu.itb: translate(vpn=0xffffffe0002012f4, asid=0): 0x804012f4
275534247000: board.processor.switch.core.mmu.itb: lookup(vpn=0xffffffe0002012f8, asid=0): hit ppn 0x80400
275534247000: board.processor.switch.core.mmu.itb: translate(vpn=0xffffffe0002012f8, asid=0): 0x804012f8
275534249000: board.processor.switch.core.mmu.dtb: lookup(vpn=0xffffffe080a7bee0, asid=0): hit ppn 0x100c00
275534249000: board.processor.switch.core.mmu.dtb: translate(vpn=0xffffffe080a7bee0, asid=0): 0x100c7bee0
275534249000: board.processor.switch.core.mmu.itb: lookup(vpn=0xffffffe0002012f8, asid=0): hit ppn 0x80400
275534249000: board.processor.switch.core.mmu.itb: translate(vpn=0xffffffe0002012f8, asid=0): 0x804012f8
275534251000: board.processor.switch.core.mmu.itb: lookup(vpn=0xffffffe0002012fc, asid=0): hit ppn 0x80400
275534251000: board.processor.switch.core.mmu.itb: translate(vpn=0xffffffe0002012fc, asid=0): 0x804012fc
275534253000: board.processor.switch.core.mmu.itb: lookup(vpn=0xffffffe0002012fc, asid=0): hit ppn 0x80400
275534253000: board.processor.switch.core.mmu.itb: translate(vpn=0xffffffe0002012fc, asid=0): 0x804012fc
275534255000: board.processor.switch.core.mmu.itb: lookup(vpn=0xffffffe000201300, asid=0): hit ppn 0x80400
275534255000: board.processor.switch.core.mmu.itb: translate(vpn=0xffffffe000201300, asid=0): 0x80401300
275534257000: board.processor.switch.core.mmu.itb: lookup(vpn=0xffffffe000201300, asid=0): hit ppn 0x80400
275534257000: board.processor.switch.core.mmu.itb: translate(vpn=0xffffffe000201300, asid=0): 0x80401300
275534259000: board.processor.switch.core.mmu.dtb: lookup(vpn=0xffffffe080a7bee8, asid=0): hit ppn 0x100c00
275534259000: board.processor.switch.core.mmu.dtb: translate(vpn=0xffffffe080a7bee8, asid=0): 0x100c7bee8
275534261000: board.processor.switch.core.mmu.itb: lookup(vpn=0xffffffe000201304, asid=0): hit ppn 0x80400
275534261000: board.processor.switch.core.mmu.itb: translate(vpn=0xffffffe000201304, asid=0): 0x80401304
275534263000: board.processor.switch.core.mmu.dtb: lookup(vpn=0xffffffe080a7bef8, asid=0): hit ppn 0x100c00
275534263000: board.processor.switch.core.mmu.dtb: translate(vpn=0xffffffe080a7bef8, asid=0): 0x100c7bef8
275534265000: board.processor.switch.core.mmu.itb: lookup(vpn=0xffffffe000201304, asid=0): hit ppn 0x80400
275534265000: board.processor.switch.core.mmu.itb: translate(vpn=0xffffffe000201304, asid=0): 0x80401304
275534267000: board.processor.switch.core.mmu.dtb: lookup(vpn=0xffffffe080a7bf00, asid=0): hit ppn 0x100c00
275534267000: board.processor.switch.core.mmu.dtb: translate(vpn=0xffffffe080a7bf00, asid=0): 0x100c7bf00
275534269000: board.processor.switch.core.mmu.itb: lookup(vpn=0xffffffe000201308, asid=0): hit ppn 0x80400
275534269000: board.processor.switch.core.mmu.itb: translate(vpn=0xffffffe000201308, asid=0): 0x80401308
275534271000: board.processor.switch.core.mmu.dtb: lookup(vpn=0xffffffe080a7bf08, asid=0): hit ppn 0x100c00
275534271000: board.processor.switch.core.mmu.dtb: translate(vpn=0xffffffe080a7bf08, asid=0): 0x100c7bf08
275534273000: board.processor.switch.core.mmu.itb: lookup(vpn=0xffffffe000201308, asid=0): hit ppn 0x80400
275534273000: board.processor.switch.core.mmu.itb: translate(vpn=0xffffffe000201308, asid=0): 0x80401308
275534275000: board.processor.switch.core.mmu.dtb: lookup(vpn=0xffffffe080a7bf10, asid=0): hit ppn 0x100c00
275534275000: board.processor.switch.core.mmu.dtb: translate(vpn=0xffffffe080a7bf10, asid=0): 0x100c7bf10
275534277000: board.processor.switch.core.mmu.itb: lookup(vpn=0xffffffe00020130c, asid=0): hit ppn 0x80400
275534277000: board.processor.switch.core.mmu.itb: translate(vpn=0xffffffe00020130c, asid=0): 0x8040130c
275534279000: board.processor.switch.core.mmu.dtb: lookup(vpn=0xffffffe080a7bf18, asid=0): hit ppn 0x100c00
275534279000: board.processor.switch.core.mmu.dtb: translate(vpn=0xffffffe080a7bf18, asid=0): 0x100c7bf18
275534281000: board.processor.switch.core.mmu.itb: lookup(vpn=0xffffffe00020130c, asid=0): hit ppn 0x80400
275534281000: board.processor.switch.core.mmu.itb: translate(vpn=0xffffffe00020130c, asid=0): 0x8040130c
275534283000: board.processor.switch.core.mmu.dtb: lookup(vpn=0xffffffe080a7bf20, asid=0): hit ppn 0x100c00
275534283000: board.processor.switch.core.mmu.dtb: translate(vpn=0xffffffe080a7bf20, asid=0): 0x100c7bf20
275534285000: board.processor.switch.core.mmu.itb: lookup(vpn=0xffffffe000201310, asid=0): hit ppn 0x80400
275534285000: board.processor.switch.core.mmu.itb: translate(vpn=0xffffffe000201310, asid=0): 0x80401310
275534287000: board.processor.switch.core.mmu.dtb: lookup(vpn=0xffffffe080a7bf28, asid=0): hit ppn 0x100c00
275534287000: board.processor.switch.core.mmu.dtb: translate(vpn=0xffffffe080a7bf28, asid=0): 0x100c7bf28
275534289000: board.processor.switch.core.mmu.itb: lookup(vpn=0xffffffe000201310, asid=0): hit ppn 0x80400
275534289000: board.processor.switch.core.mmu.itb: translate(vpn=0xffffffe000201310, asid=0): 0x80401310
275534291000: board.processor.switch.core.mmu.dtb: lookup(vpn=0xffffffe080a7bf30, asid=0): hit ppn 0x100c00
275534291000: board.processor.switch.core.mmu.dtb: translate(vpn=0xffffffe080a7bf30, asid=0): 0x100c7bf30
275534293000: board.processor.switch.core.mmu.itb: lookup(vpn=0xffffffe000201314, asid=0): hit ppn 0x80400
275534293000: board.processor.switch.core.mmu.itb: translate(vpn=0xffffffe000201314, asid=0): 0x80401314
275534295000: board.processor.switch.core.mmu.dtb: lookup(vpn=0xffffffe080a7bf38, asid=0): hit ppn 0x100c00
275534295000: board.processor.switch.core.mmu.dtb: translate(vpn=0xffffffe080a7bf38, asid=0): 0x100c7bf38
275534297000: board.processor.switch.core.mmu.itb: lookup(vpn=0xffffffe000201314, asid=0): hit ppn 0x80400
275534297000: board.processor.switch.core.mmu.itb: translate(vpn=0xffffffe000201314, asid=0): 0x80401314
275534299000: board.processor.switch.core.mmu.dtb: lookup(vpn=0xffffffe080a7bf40, asid=0): hit ppn 0x100c00
275534299000: board.processor.switch.core.mmu.dtb: translate(vpn=0xffffffe080a7bf40, asid=0): 0x100c7bf40
275534301000: board.processor.switch.core.mmu.itb: lookup(vpn=0xffffffe000201318, asid=0): hit ppn 0x80400
275534301000: board.processor.switch.core.mmu.itb: translate(vpn=0xffffffe000201318, asid=0): 0x80401318
275534303000: board.processor.switch.core.mmu.dtb: lookup(vpn=0xffffffe080a7bf48, asid=0): hit ppn 0x100c00
275534303000: board.processor.switch.core.mmu.dtb: translate(vpn=0xffffffe080a7bf48, asid=0): 0x100c7bf48
275534305000: board.processor.switch.core.mmu.itb: lookup(vpn=0xffffffe000201318, asid=0): hit ppn 0x80400
275534305000: board.processor.switch.core.mmu.itb: translate(vpn=0xffffffe000201318, asid=0): 0x80401318
275534307000: board.processor.switch.core.mmu.dtb: lookup(vpn=0xffffffe080a7bf50, asid=0): hit ppn 0x100c00
275534307000: board.processor.switch.core.mmu.dtb: translate(vpn=0xffffffe080a7bf50, asid=0): 0x100c7bf50
275534309000: board.processor.switch.core.mmu.itb: lookup(vpn=0xffffffe00020131c, asid=0): hit ppn 0x80400
275534309000: board.processor.switch.core.mmu.itb: translate(vpn=0xffffffe00020131c, asid=0): 0x8040131c
275534311000: board.processor.switch.core.mmu.dtb: lookup(vpn=0xffffffe080a7bf58, asid=0): hit ppn 0x100c00
275534311000: board.processor.switch.core.mmu.dtb: translate(vpn=0xffffffe080a7bf58, asid=0): 0x100c7bf58
275534313000: board.processor.switch.core.mmu.itb: lookup(vpn=0xffffffe00020131c, asid=0): hit ppn 0x80400
275534313000: board.processor.switch.core.mmu.itb: translate(vpn=0xffffffe00020131c, asid=0): 0x8040131c
275534315000: board.processor.switch.core.mmu.dtb: lookup(vpn=0xffffffe080a7bf60, asid=0): hit ppn 0x100c00
275534315000: board.processor.switch.core.mmu.dtb: translate(vpn=0xffffffe080a7bf60, asid=0): 0x100c7bf60
275534317000: board.processor.switch.core.mmu.itb: lookup(vpn=0xffffffe000201320, asid=0): hit ppn 0x80400
275534317000: board.processor.switch.core.mmu.itb: translate(vpn=0xffffffe000201320, asid=0): 0x80401320
275534319000: board.processor.switch.core.mmu.dtb: lookup(vpn=0xffffffe080a7bf68, asid=0): hit ppn 0x100c00
275534319000: board.processor.switch.core.mmu.dtb: translate(vpn=0xffffffe080a7bf68, asid=0): 0x100c7bf68
275534321000: board.processor.switch.core.mmu.itb: lookup(vpn=0xffffffe000201320, asid=0): hit ppn 0x80400
275534321000: board.processor.switch.core.mmu.itb: translate(vpn=0xffffffe000201320, asid=0): 0x80401320
275534323000: board.processor.switch.core.mmu.dtb: lookup(vpn=0xffffffe080a7bf70, asid=0): hit ppn 0x100c00
275534323000: board.processor.switch.core.mmu.dtb: translate(vpn=0xffffffe080a7bf70, asid=0): 0x100c7bf70
275534325000: board.processor.switch.core.mmu.itb: lookup(vpn=0xffffffe000201324, asid=0): hit ppn 0x80400
275534325000: board.processor.switch.core.mmu.itb: translate(vpn=0xffffffe000201324, asid=0): 0x80401324
275534327000: board.processor.switch.core.mmu.dtb: lookup(vpn=0xffffffe080a7bf78, asid=0): hit ppn 0x100c00
275534327000: board.processor.switch.core.mmu.dtb: translate(vpn=0xffffffe080a7bf78, asid=0): 0x100c7bf78
275534329000: board.processor.switch.core.mmu.itb: lookup(vpn=0xffffffe000201324, asid=0): hit ppn 0x80400
275534329000: board.processor.switch.core.mmu.itb: translate(vpn=0xffffffe000201324, asid=0): 0x80401324
275534331000: board.processor.switch.core.mmu.dtb: lookup(vpn=0xffffffe080a7bf80, asid=0): hit ppn 0x100c00
275534331000: board.processor.switch.core.mmu.dtb: translate(vpn=0xffffffe080a7bf80, asid=0): 0x100c7bf80
275534333000: board.processor.switch.core.mmu.itb: lookup(vpn=0xffffffe000201328, asid=0): hit ppn 0x80400
275534333000: board.processor.switch.core.mmu.itb: translate(vpn=0xffffffe000201328, asid=0): 0x80401328
275534335000: board.processor.switch.core.mmu.dtb: lookup(vpn=0xffffffe080a7bf88, asid=0): hit ppn 0x100c00
275534335000: board.processor.switch.core.mmu.dtb: translate(vpn=0xffffffe080a7bf88, asid=0): 0x100c7bf88
275534337000: board.processor.switch.core.mmu.itb: lookup(vpn=0xffffffe000201328, asid=0): hit ppn 0x80400
275534337000: board.processor.switch.core.mmu.itb: translate(vpn=0xffffffe000201328, asid=0): 0x80401328
275534339000: board.processor.switch.core.mmu.dtb: lookup(vpn=0xffffffe080a7bf90, asid=0): hit ppn 0x100c00
275534339000: board.processor.switch.core.mmu.dtb: translate(vpn=0xffffffe080a7bf90, asid=0): 0x100c7bf90
275534341000: board.processor.switch.core.mmu.itb: lookup(vpn=0xffffffe00020132c, asid=0): hit ppn 0x80400
275534341000: board.processor.switch.core.mmu.itb: translate(vpn=0xffffffe00020132c, asid=0): 0x8040132c
275534343000: board.processor.switch.core.mmu.dtb: lookup(vpn=0xffffffe080a7bf98, asid=0): hit ppn 0x100c00
275534343000: board.processor.switch.core.mmu.dtb: translate(vpn=0xffffffe080a7bf98, asid=0): 0x100c7bf98
275534345000: board.processor.switch.core.mmu.itb: lookup(vpn=0xffffffe00020132c, asid=0): hit ppn 0x80400
275534345000: board.processor.switch.core.mmu.itb: translate(vpn=0xffffffe00020132c, asid=0): 0x8040132c
275534347000: board.processor.switch.core.mmu.dtb: lookup(vpn=0xffffffe080a7bfa0, asid=0): hit ppn 0x100c00
275534347000: board.processor.switch.core.mmu.dtb: translate(vpn=0xffffffe080a7bfa0, asid=0): 0x100c7bfa0
275534349000: board.processor.switch.core.mmu.itb: lookup(vpn=0xffffffe000201330, asid=0): hit ppn 0x80400
275534349000: board.processor.switch.core.mmu.itb: translate(vpn=0xffffffe000201330, asid=0): 0x80401330
275534351000: board.processor.switch.core.mmu.dtb: lookup(vpn=0xffffffe080a7bfa8, asid=0): hit ppn 0x100c00
275534351000: board.processor.switch.core.mmu.dtb: translate(vpn=0xffffffe080a7bfa8, asid=0): 0x100c7bfa8
275534353000: board.processor.switch.core.mmu.itb: lookup(vpn=0xffffffe000201330, asid=0): hit ppn 0x80400
275534353000: board.processor.switch.core.mmu.itb: translate(vpn=0xffffffe000201330, asid=0): 0x80401330
275534355000: board.processor.switch.core.mmu.dtb: lookup(vpn=0xffffffe080a7bfb0, asid=0): hit ppn 0x100c00
275534355000: board.processor.switch.core.mmu.dtb: translate(vpn=0xffffffe080a7bfb0, asid=0): 0x100c7bfb0
275534357000: board.processor.switch.core.mmu.itb: lookup(vpn=0xffffffe000201334, asid=0): hit ppn 0x80400
275534357000: board.processor.switch.core.mmu.itb: translate(vpn=0xffffffe000201334, asid=0): 0x80401334
275534359000: board.processor.switch.core.mmu.dtb: lookup(vpn=0xffffffe080a7bfb8, asid=0): hit ppn 0x100c00
275534359000: board.processor.switch.core.mmu.dtb: translate(vpn=0xffffffe080a7bfb8, asid=0): 0x100c7bfb8
275534361000: board.processor.switch.core.mmu.itb: lookup(vpn=0xffffffe000201334, asid=0): hit ppn 0x80400
275534361000: board.processor.switch.core.mmu.itb: translate(vpn=0xffffffe000201334, asid=0): 0x80401334
275534363000: board.processor.switch.core.mmu.dtb: lookup(vpn=0xffffffe080a7bfc0, asid=0): hit ppn 0x100c00
275534363000: board.processor.switch.core.mmu.dtb: translate(vpn=0xffffffe080a7bfc0, asid=0): 0x100c7bfc0
275534365000: board.processor.switch.core.mmu.itb: lookup(vpn=0xffffffe000201338, asid=0): hit ppn 0x80400
275534365000: board.processor.switch.core.mmu.itb: translate(vpn=0xffffffe000201338, asid=0): 0x80401338
275534367000: board.processor.switch.core.mmu.dtb: lookup(vpn=0xffffffe080a7bfc8, asid=0): hit ppn 0x100c00
275534367000: board.processor.switch.core.mmu.dtb: translate(vpn=0xffffffe080a7bfc8, asid=0): 0x100c7bfc8
275534369000: board.processor.switch.core.mmu.itb: lookup(vpn=0xffffffe000201338, asid=0): hit ppn 0x80400
275534369000: board.processor.switch.core.mmu.itb: translate(vpn=0xffffffe000201338, asid=0): 0x80401338
275534371000: board.processor.switch.core.mmu.dtb: lookup(vpn=0xffffffe080a7bfd0, asid=0): hit ppn 0x100c00
275534371000: board.processor.switch.core.mmu.dtb: translate(vpn=0xffffffe080a7bfd0, asid=0): 0x100c7bfd0
275534373000: board.processor.switch.core.mmu.itb: lookup(vpn=0xffffffe00020133c, asid=0): hit ppn 0x80400
275534373000: board.processor.switch.core.mmu.itb: translate(vpn=0xffffffe00020133c, asid=0): 0x8040133c
275534375000: board.processor.switch.core.mmu.dtb: lookup(vpn=0xffffffe080a7bfd8, asid=0): hit ppn 0x100c00
275534375000: board.processor.switch.core.mmu.dtb: translate(vpn=0xffffffe080a7bfd8, asid=0): 0x100c7bfd8
275534377000: board.processor.switch.core.mmu.itb: lookup(vpn=0xffffffe00020133c, asid=0): hit ppn 0x80400
275534377000: board.processor.switch.core.mmu.itb: translate(vpn=0xffffffe00020133c, asid=0): 0x8040133c
275534379000: board.processor.switch.core.mmu.dtb: lookup(vpn=0xffffffe080a7bef0, asid=0): hit ppn 0x100c00
275534379000: board.processor.switch.core.mmu.dtb: translate(vpn=0xffffffe080a7bef0, asid=0): 0x100c7bef0
275534381000: board.processor.switch.core.mmu.itb: lookup(vpn=0xffffffe000201340, asid=0): hit ppn 0x80400
275534381000: board.processor.switch.core.mmu.itb: translate(vpn=0xffffffe000201340, asid=0): 0x80401340
275534383000: board.processor.switch.core.mmu.itb: lookup(vpn=0x10538, asid=0): hit ppn 0x101011
275534383000: board.processor.switch.core.mmu.itb: translate(vpn=0x10538, asid=0): 0x101011538
275534385000: board.processor.switch.core.mmu.itb: lookup(vpn=0x1053c, asid=0): hit ppn 0x101011
275534385000: board.processor.switch.core.mmu.itb: translate(vpn=0x1053c, asid=0): 0x10101153c
275534387000: board.processor.switch.core.mmu.dtb: lookup(vpn=0x3fbdb17000, asid=0): miss ppn 0
275534387000: board.processor.switch.core.mmu.dtb.walker: Performing table walk for address 0x3fbdb17000
275534387000: board.processor.switch.core.mmu.dtb.walker: Loading level2 PTE from 0x100ca97f0
275534388001: board.processor.switch.core.mmu.dtb.walker: Got level2 PTE: 0x4031cc01
275534388001: board.processor.switch.core.mmu.dtb.walker: Loading level1 PTE from 0x100c73f68
275534390001: board.processor.switch.core.mmu.dtb.walker: Got level1 PTE: 0x4032a801
275534390001: board.processor.switch.core.mmu.dtb.walker: Loading level0 PTE from 0x100caa8b8
275534392001: board.processor.switch.core.mmu.dtb.walker: Got level0 PTE: 0x404298d7
275534392001: board.processor.switch.core.mmu.dtb: insert(vpn=0x3fbdb17000, asid=0): ppn=0x1010a6 pte=0x404298d7 size=0x1000
275534392001: board.processor.switch.core.mmu.dtb: lookup(vpn=0x3fbdb17000, asid=0): hit ppn 0x1010a6
275534395000: board.processor.switch.core.mmu.itb: lookup(vpn=0x1053c, asid=0): hit ppn 0x101011
275534395000: board.processor.switch.core.mmu.itb: translate(vpn=0x1053c, asid=0): 0x10101153c
275534397000: board.processor.switch.core.mmu.itb: lookup(vpn=0x10540, asid=0): hit ppn 0x101011
275534397000: board.processor.switch.core.mmu.itb: translate(vpn=0x10540, asid=0): 0x101011540
275534476000: board.processor.switch.core.mmu.itb: lookup(vpn=0x10578, asid=0): hit ppn 0x101011
275534476000: board.processor.switch.core.mmu.itb: translate(vpn=0x10578, asid=0): 0x101011578
275534478000: board.processor.switch.core.mmu.itb: lookup(vpn=0x1057c, asid=0): hit ppn 0x101011
275534478000: board.processor.switch.core.mmu.itb: translate(vpn=0x1057c, asid=0): 0x10101157c
275534480000: board.processor.switch.core.mmu.itb: lookup(vpn=0x1057c, asid=0): hit ppn 0x101011
275534480000: board.processor.switch.core.mmu.itb: translate(vpn=0x1057c, asid=0): 0x10101157c
