Global frequency set at 1000000000000 ticks per second
      0: board.platform.rtc: Real-time clock set to Sun Jan  1 00:00:00 2012
gem5 Simulator System.  https://www.gem5.org
gem5 is copyrighted software; use the --copyright option for details.

gem5 version 23.1.0.0
gem5 compiled Mar 27 2024 12:41:22
gem5 started Mar 27 2024 13:23:35
gem5 executing on francio-ThinkPad-P15v-Gen-1, pid 16721
command line: ./gem5/build/RISCV/gem5.opt --debug-flags=MMU,TLB,TLBVerbose,PageTableWalker --debug-start=275494615000 gem5/configs/example/riscv/riscv-fs.py

info: Using default config
Beginning simulation!
2096759000: board.platform.terminal: attach terminal 0
275494615000: board.processor.start.core.mmu.itb: lookup(vpn=0x105c4, asid=0): hit ppn 0x101011
275494615000: board.processor.start.core.mmu.itb: translate(vpn=0x105c4, asid=0): 0x1010115c4
275494615000: board.processor.start.core.mmu.itb: flushAll()
275494615000: board.processor.start.core.mmu.itb: remove(vpn=0xffffffe000400000, asid=0): ppn=0x80600 pte=0x201800cb size=0x200000
275494615000: board.processor.start.core.mmu.itb: remove(vpn=0x3c000, asid=0): ppn=0x101095 pte=0x4042545b size=0x1000
275494615000: board.processor.start.core.mmu.itb: remove(vpn=0xffffffe000200000, asid=0): ppn=0x80400 pte=0x201000cb size=0x200000
275494615000: board.processor.start.core.mmu.itb: remove(vpn=0x16000, asid=0): ppn=0x101051 pte=0x4041445b size=0x1000
275494615000: board.processor.start.core.mmu.itb: remove(vpn=0x28000, asid=0): ppn=0x101033 pte=0x4040cc5b size=0x1000
275494615000: board.processor.start.core.mmu.itb: remove(vpn=0x18000, asid=0): ppn=0x101039 pte=0x4040e45b size=0x1000
275494615000: board.processor.start.core.mmu.itb: remove(vpn=0x23000, asid=0): ppn=0x10102d pte=0x4040b45b size=0x1000
275494615000: board.processor.start.core.mmu.itb: remove(vpn=0x22000, asid=0): ppn=0x101056 pte=0x4041585b size=0x1000
275494615000: board.processor.start.core.mmu.itb: remove(vpn=0xffffffe000600000, asid=0): ppn=0x80800 pte=0x202000cb size=0x200000
275494615000: board.processor.start.core.mmu.itb: remove(vpn=0x10000, asid=0): ppn=0x101011 pte=0x4040445b size=0x1000
275494615000: board.processor.start.core.mmu.itb: remove(vpn=0x4b000, asid=0): ppn=0x10106f pte=0x4041bc5b size=0x1000
275494615000: board.processor.start.core.mmu.itb: remove(vpn=0x4a000, asid=0): ppn=0x10106e pte=0x4041b85b size=0x1000
275494615000: board.processor.start.core.mmu.itb: remove(vpn=0x14000, asid=0): ppn=0x10102e pte=0x4040b85b size=0x1000
275494615000: board.processor.start.core.mmu.itb: remove(vpn=0x13000, asid=0): ppn=0x10100a pte=0x4040285b size=0x1000
275494615000: board.processor.start.core.mmu.itb: remove(vpn=0x11000, asid=0): ppn=0x2781ea pte=0x9e07a85b size=0x1000
275494615000: board.processor.start.core.mmu.itb: remove(vpn=0x17000, asid=0): ppn=0x101029 pte=0x4040a45b size=0x1000
275494615000: board.processor.start.core.mmu.dtb: flushAll()
275494615000: board.processor.start.core.mmu.dtb: remove(vpn=0x70000, asid=0): ppn=0x101008 pte=0x4040205b size=0x1000
275494615000: board.processor.start.core.mmu.dtb: remove(vpn=0x71000, asid=0): ppn=0x101001 pte=0x4040045b size=0x1000
275494615000: board.processor.start.core.mmu.dtb: remove(vpn=0x72000, asid=0): ppn=0x101014 pte=0x4040505b size=0x1000
275494615000: board.processor.start.core.mmu.dtb: remove(vpn=0x73000, asid=0): ppn=0x10101d pte=0x4040745b size=0x1000
275494615000: board.processor.start.core.mmu.dtb: remove(vpn=0x74000, asid=0): ppn=0x101019 pte=0x4040645b size=0x1000
275494615000: board.processor.start.core.mmu.dtb: remove(vpn=0x80000, asid=0): ppn=0x101087 pte=0x40421cd7 size=0x1000
275494615000: board.processor.start.core.mmu.dtb: remove(vpn=0x81000, asid=0): ppn=0x10109d pte=0x404274d7 size=0x1000
275494615000: board.processor.start.core.mmu.dtb: remove(vpn=0x78000, asid=0): ppn=0x10109e pte=0x404278d3 size=0x1000
275494615000: board.processor.start.core.mmu.dtb: remove(vpn=0xffffffe080600000, asid=0): ppn=0x100800 pte=0x402000c7 size=0x200000
275494615000: board.processor.start.core.mmu.dtb: remove(vpn=0x6f000, asid=0): ppn=0x10100c pte=0x4040305b size=0x1000
275494615000: board.processor.start.core.mmu.dtb: remove(vpn=0x6e000, asid=0): ppn=0x101018 pte=0x4040605b size=0x1000
275494615000: board.processor.start.core.mmu.dtb: remove(vpn=0xffffffe080a00000, asid=0): ppn=0x100c00 pte=0x403000c7 size=0x200000
275494615000: board.processor.start.core.mmu.dtb: remove(vpn=0xffffffe000c00000, asid=0): ppn=0x80e00 pte=0x203800c7 size=0x200000
275494615000: board.processor.start.core.mmu.dtb: remove(vpn=0x3fffcbb000, asid=0): ppn=0x101013 pte=0x40404cd7 size=0x1000
275494615000: board.processor.start.core.mmu.dtb: remove(vpn=0xffffffe000800000, asid=0): ppn=0x80a00 pte=0x202800c3 size=0x200000
275494615000: board.processor.start.core.mmu.dtb: remove(vpn=0xffffffe1f8c00000, asid=0): ppn=0x278e00 pte=0x9e3800c7 size=0x200000
275494615000: board.processor.start.core.mmu.dtb: remove(vpn=0xffffffe080200000, asid=0): ppn=0x100400 pte=0x401000c7 size=0x200000
275494615000: board.processor.start.core.mmu.dtb: remove(vpn=0xffffffe1faa00000, asid=0): ppn=0x27ac00 pte=0x9eb000c7 size=0x200000
275494615000: board.processor.start.core.mmu.dtb: remove(vpn=0xffffffe000a00000, asid=0): ppn=0x80c00 pte=0x203000c3 size=0x200000
275494615000: board.processor.start.core.mmu.dtb: remove(vpn=0x7a000, asid=0): ppn=0x101017 pte=0x40405cd7 size=0x1000
275494615000: board.processor.start.core.mmu.dtb: remove(vpn=0x7b000, asid=0): ppn=0x101057 pte=0x40415cd7 size=0x1000
275494615000: board.processor.start.core.mmu.dtb: remove(vpn=0x79000, asid=0): ppn=0x101069 pte=0x4041a4d7 size=0x1000
275494615000: board.processor.start.core.mmu.dtb: remove(vpn=0x7f000, asid=0): ppn=0x101034 pte=0x4040d0d7 size=0x1000
275494615000: board.processor.start.core.mmu.dtb: remove(vpn=0x75000, asid=0): ppn=0x10100f pte=0x40403c53 size=0x1000
275494615000: board.processor.start.core.mmu.dtb: remove(vpn=0xffffffe080800000, asid=0): ppn=0x100a00 pte=0x402800c7 size=0x200000
275494615000: board.processor.start.core.mmu.dtb: remove(vpn=0xffffffe080e00000, asid=0): ppn=0x101000 pte=0x404000c7 size=0x200000
275494615000: board.processor.start.core.mmu.dtb: remove(vpn=0xffffffd004001000, asid=0): ppn=0x10008 pte=0x40020c7 size=0x1000
275494615000: board.processor.start.core.mmu.dtb: remove(vpn=0xffffffd000201000, asid=0): ppn=0xc201 pte=0x30804c7 size=0x1000
275494615000: board.processor.start.core.mmu.dtb: remove(vpn=0x67000, asid=0): ppn=0x1010a3 pte=0x40428c5b size=0x1000
275494615000: board.processor.start.core.mmu.dtb: remove(vpn=0x68000, asid=0): ppn=0x1010a4 pte=0x4042905b size=0x1000
275494615000: board.processor.start.core.mmu.dtb: remove(vpn=0x69000, asid=0): ppn=0x1010a5 pte=0x4042945b size=0x1000
275494615000: board.processor.start.core.mmu.dtb: remove(vpn=0x6a000, asid=0): ppn=0x101016 pte=0x4040585b size=0x1000
275494615000: board.processor.start.core.mmu.dtb: remove(vpn=0x6b000, asid=0): ppn=0x101015 pte=0x4040545b size=0x1000
275494615000: board.processor.start.core.mmu.dtb: remove(vpn=0xffffffe07fe00000, asid=0): ppn=0x100000 pte=0x400000c7 size=0x200000
275494615000: board.processor.start.core.mmu.dtb: remove(vpn=0x6c000, asid=0): ppn=0x101006 pte=0x4040185b size=0x1000
275494615000: board.processor.start.core.mmu.dtb: remove(vpn=0x6d000, asid=0): ppn=0x101012 pte=0x4040485b size=0x1000
switching cpus
275494616000: board.processor.switch.core.mmu.itb: lookup(vpn=0x105c4, asid=0): miss ppn 0
275494616000: board.processor.switch.core.mmu.itb.walker: Performing table walk for address 0x105c4
275494616000: board.processor.switch.core.mmu.itb.walker: Loading level2 PTE from 0x100ca9000
275494688001: board.processor.switch.core.mmu.itb.walker: Got level2 PTE: 0x40319801
275494688001: board.processor.switch.core.mmu.itb.walker: Loading level1 PTE from 0x100c66000
275494756001: board.processor.switch.core.mmu.itb.walker: Got level1 PTE: 0x4032e401
275494756001: board.processor.switch.core.mmu.itb.walker: Loading level0 PTE from 0x100cb9080
275494824001: board.processor.switch.core.mmu.itb.walker: Got level0 PTE: 0x4040445b
275494824001: board.processor.switch.core.mmu.itb: insert(vpn=0x10000, asid=0): ppn=0x101011 pte=0x4040445b size=0x1000
275494824001: board.processor.switch.core.mmu.itb: lookup(vpn=0x105c4, asid=0): hit ppn 0x101011
275494893000: board.processor.switch.core.mmu.itb: lookup(vpn=0x1050c, asid=0): hit ppn 0x101011
275494893000: board.processor.switch.core.mmu.itb: translate(vpn=0x1050c, asid=0): 0x10101150c
275494947000: board.processor.switch.core.mmu.itb: lookup(vpn=0x1050c, asid=0): hit ppn 0x101011
275494947000: board.processor.switch.core.mmu.itb: translate(vpn=0x1050c, asid=0): 0x10101150c
275494949000: board.processor.switch.core.mmu.itb: lookup(vpn=0x10510, asid=0): hit ppn 0x101011
275494949000: board.processor.switch.core.mmu.itb: translate(vpn=0x10510, asid=0): 0x101011510
275494951000: board.processor.switch.core.mmu.itb: lookup(vpn=0x147dc, asid=0): miss ppn 0
275494951000: board.processor.switch.core.mmu.itb.walker: Performing table walk for address 0x147dc
275494951000: board.processor.switch.core.mmu.itb.walker: Loading level2 PTE from 0x100ca9000
275494952001: board.processor.switch.core.mmu.itb.walker: Got level2 PTE: 0x40319801
275494952001: board.processor.switch.core.mmu.itb.walker: Loading level1 PTE from 0x100c66000
275494954001: board.processor.switch.core.mmu.itb.walker: Got level1 PTE: 0x4032e401
275494954001: board.processor.switch.core.mmu.itb.walker: Loading level0 PTE from 0x100cb90a0
275494956001: board.processor.switch.core.mmu.itb.walker: Got level0 PTE: 0x4040b85b
275494956001: board.processor.switch.core.mmu.itb: insert(vpn=0x14000, asid=0): ppn=0x10102e pte=0x4040b85b size=0x1000
275494956001: board.processor.switch.core.mmu.itb: lookup(vpn=0x147dc, asid=0): hit ppn 0x10102e
275495025000: board.processor.switch.core.mmu.itb: lookup(vpn=0x147dc, asid=0): hit ppn 0x10102e
275495025000: board.processor.switch.core.mmu.itb: translate(vpn=0x147dc, asid=0): 0x10102e7dc
275495027000: board.processor.switch.core.mmu.dtb: lookup(vpn=0x3fffcbbb98, asid=0): miss ppn 0
275495027000: board.processor.switch.core.mmu.dtb.walker: Performing table walk for address 0x3fffcbbb98
275495027000: board.processor.switch.core.mmu.dtb.walker: Loading level2 PTE from 0x100ca97f8
275495080001: board.processor.switch.core.mmu.dtb.walker: Got level2 PTE: 0x4032a001
275495080001: board.processor.switch.core.mmu.dtb.walker: Loading level1 PTE from 0x100ca8ff0
275495134001: board.processor.switch.core.mmu.dtb.walker: Got level1 PTE: 0x4032d001
275495134001: board.processor.switch.core.mmu.dtb.walker: Loading level0 PTE from 0x100cb45d8
275495202001: board.processor.switch.core.mmu.dtb.walker: Got level0 PTE: 0x40404cd7
275495202001: board.processor.switch.core.mmu.dtb: insert(vpn=0x3fffcbb000, asid=0): ppn=0x101013 pte=0x40404cd7 size=0x1000
275495202001: board.processor.switch.core.mmu.dtb: lookup(vpn=0x3fffcbbb98, asid=0): hit ppn 0x101013
275495271000: board.processor.switch.core.mmu.itb: lookup(vpn=0x147e0, asid=0): hit ppn 0x10102e
275495271000: board.processor.switch.core.mmu.itb: translate(vpn=0x147e0, asid=0): 0x10102e7e0
275495273000: board.processor.switch.core.mmu.dtb: lookup(vpn=0x3fffcbbba8, asid=0): hit ppn 0x101013
275495273000: board.processor.switch.core.mmu.dtb: translate(vpn=0x3fffcbbba8, asid=0): 0x101013ba8
275495275000: board.processor.switch.core.mmu.itb: lookup(vpn=0x147e0, asid=0): hit ppn 0x10102e
275495275000: board.processor.switch.core.mmu.itb: translate(vpn=0x147e0, asid=0): 0x10102e7e0
275495277000: board.processor.switch.core.mmu.dtb: lookup(vpn=0x3fffcbbba0, asid=0): hit ppn 0x101013
275495277000: board.processor.switch.core.mmu.dtb: translate(vpn=0x3fffcbbba0, asid=0): 0x101013ba0
275495279000: board.processor.switch.core.mmu.itb: lookup(vpn=0x147e4, asid=0): hit ppn 0x10102e
275495279000: board.processor.switch.core.mmu.itb: translate(vpn=0x147e4, asid=0): 0x10102e7e4
275495281000: board.processor.switch.core.mmu.itb: lookup(vpn=0x147e8, asid=0): hit ppn 0x10102e
275495281000: board.processor.switch.core.mmu.itb: translate(vpn=0x147e8, asid=0): 0x10102e7e8
275495283000: board.processor.switch.core.mmu.dtb: lookup(vpn=0x7f565, asid=0): miss ppn 0
275495283000: board.processor.switch.core.mmu.dtb.walker: Performing table walk for address 0x7f565
275495283000: board.processor.switch.core.mmu.dtb.walker: Loading level2 PTE from 0x100ca9000
275495284001: board.processor.switch.core.mmu.dtb.walker: Got level2 PTE: 0x40319801
275495284001: board.processor.switch.core.mmu.dtb.walker: Loading level1 PTE from 0x100c66000
275495286001: board.processor.switch.core.mmu.dtb.walker: Got level1 PTE: 0x4032e401
275495286001: board.processor.switch.core.mmu.dtb.walker: Loading level0 PTE from 0x100cb93f8
275495340001: board.processor.switch.core.mmu.dtb.walker: Got level0 PTE: 0x4040d0d7
275495340001: board.processor.switch.core.mmu.dtb: insert(vpn=0x7f000, asid=0): ppn=0x101034 pte=0x4040d0d7 size=0x1000
275495340001: board.processor.switch.core.mmu.dtb: lookup(vpn=0x7f565, asid=0): hit ppn 0x101034
275495423000: board.processor.switch.core.mmu.itb: lookup(vpn=0x147ec, asid=0): hit ppn 0x10102e
275495423000: board.processor.switch.core.mmu.itb: translate(vpn=0x147ec, asid=0): 0x10102e7ec
275495425000: board.processor.switch.core.mmu.itb: lookup(vpn=0x147ec, asid=0): hit ppn 0x10102e
275495425000: board.processor.switch.core.mmu.itb: translate(vpn=0x147ec, asid=0): 0x10102e7ec
275495427000: board.processor.switch.core.mmu.itb: lookup(vpn=0x147f0, asid=0): hit ppn 0x10102e
275495427000: board.processor.switch.core.mmu.itb: translate(vpn=0x147f0, asid=0): 0x10102e7f0
275495429000: board.processor.switch.core.mmu.itb: lookup(vpn=0x147f4, asid=0): hit ppn 0x10102e
275495429000: board.processor.switch.core.mmu.itb: translate(vpn=0x147f4, asid=0): 0x10102e7f4
275495431000: board.processor.switch.core.mmu.dtb: lookup(vpn=0x3fffcbbb90, asid=0): hit ppn 0x101013
275495431000: board.processor.switch.core.mmu.dtb: translate(vpn=0x3fffcbbb90, asid=0): 0x101013b90
275495433000: board.processor.switch.core.mmu.itb: lookup(vpn=0x147f4, asid=0): hit ppn 0x10102e
275495433000: board.processor.switch.core.mmu.itb: translate(vpn=0x147f4, asid=0): 0x10102e7f4
275495435000: board.processor.switch.core.mmu.itb: lookup(vpn=0x147f8, asid=0): hit ppn 0x10102e
275495435000: board.processor.switch.core.mmu.itb: translate(vpn=0x147f8, asid=0): 0x10102e7f8
275495437000: board.processor.switch.core.mmu.itb: lookup(vpn=0x147f8, asid=0): hit ppn 0x10102e
275495437000: board.processor.switch.core.mmu.itb: translate(vpn=0x147f8, asid=0): 0x10102e7f8
275495439000: board.processor.switch.core.mmu.itb: lookup(vpn=0x147fc, asid=0): hit ppn 0x10102e
275495439000: board.processor.switch.core.mmu.itb: translate(vpn=0x147fc, asid=0): 0x10102e7fc
275495441000: board.processor.switch.core.mmu.itb: lookup(vpn=0x147fc, asid=0): hit ppn 0x10102e
275495441000: board.processor.switch.core.mmu.itb: translate(vpn=0x147fc, asid=0): 0x10102e7fc
275495443000: board.processor.switch.core.mmu.itb: lookup(vpn=0x14800, asid=0): hit ppn 0x10102e
275495443000: board.processor.switch.core.mmu.itb: translate(vpn=0x14800, asid=0): 0x10102e800
275495497000: board.processor.switch.core.mmu.itb: lookup(vpn=0x14808, asid=0): hit ppn 0x10102e
275495497000: board.processor.switch.core.mmu.itb: translate(vpn=0x14808, asid=0): 0x10102e808
275495499000: board.processor.switch.core.mmu.itb: lookup(vpn=0x1480c, asid=0): hit ppn 0x10102e
275495499000: board.processor.switch.core.mmu.itb: translate(vpn=0x1480c, asid=0): 0x10102e80c
275495501000: board.processor.switch.core.mmu.itb: lookup(vpn=0x1480c, asid=0): hit ppn 0x10102e
275495501000: board.processor.switch.core.mmu.itb: translate(vpn=0x1480c, asid=0): 0x10102e80c
275495503000: board.processor.switch.core.mmu.dtb: lookup(vpn=0x80788, asid=0): miss ppn 0
275495503000: board.processor.switch.core.mmu.dtb.walker: Performing table walk for address 0x80788
275495503000: board.processor.switch.core.mmu.dtb.walker: Loading level2 PTE from 0x100ca9000
275495504001: board.processor.switch.core.mmu.dtb.walker: Got level2 PTE: 0x40319801
275495504001: board.processor.switch.core.mmu.dtb.walker: Loading level1 PTE from 0x100c66000
275495506001: board.processor.switch.core.mmu.dtb.walker: Got level1 PTE: 0x4032e401
275495506001: board.processor.switch.core.mmu.dtb.walker: Loading level0 PTE from 0x100cb9400
275495560001: board.processor.switch.core.mmu.dtb.walker: Got level0 PTE: 0x40421cd7
275495560001: board.processor.switch.core.mmu.dtb: insert(vpn=0x80000, asid=0): ppn=0x101087 pte=0x40421cd7 size=0x1000
275495560001: board.processor.switch.core.mmu.dtb: lookup(vpn=0x80788, asid=0): hit ppn 0x101087
275495643000: board.processor.switch.core.mmu.itb: lookup(vpn=0x14810, asid=0): hit ppn 0x10102e
275495643000: board.processor.switch.core.mmu.itb: translate(vpn=0x14810, asid=0): 0x10102e810
275495645000: board.processor.switch.core.mmu.itb: lookup(vpn=0x14810, asid=0): hit ppn 0x10102e
275495645000: board.processor.switch.core.mmu.itb: translate(vpn=0x14810, asid=0): 0x10102e810
275495647000: board.processor.switch.core.mmu.itb: lookup(vpn=0x14814, asid=0): hit ppn 0x10102e
275495647000: board.processor.switch.core.mmu.itb: translate(vpn=0x14814, asid=0): 0x10102e814
275495649000: board.processor.switch.core.mmu.itb: lookup(vpn=0x14814, asid=0): hit ppn 0x10102e
275495649000: board.processor.switch.core.mmu.itb: translate(vpn=0x14814, asid=0): 0x10102e814
275495651000: board.processor.switch.core.mmu.itb: lookup(vpn=0x14818, asid=0): hit ppn 0x10102e
275495651000: board.processor.switch.core.mmu.itb: translate(vpn=0x14818, asid=0): 0x10102e818
275495653000: board.processor.switch.core.mmu.dtb: lookup(vpn=0x79078, asid=0): miss ppn 0
275495653000: board.processor.switch.core.mmu.dtb.walker: Performing table walk for address 0x79078
275495653000: board.processor.switch.core.mmu.dtb.walker: Loading level2 PTE from 0x100ca9000
275495654001: board.processor.switch.core.mmu.dtb.walker: Got level2 PTE: 0x40319801
275495654001: board.processor.switch.core.mmu.dtb.walker: Loading level1 PTE from 0x100c66000
275495656001: board.processor.switch.core.mmu.dtb.walker: Got level1 PTE: 0x4032e401
275495656001: board.processor.switch.core.mmu.dtb.walker: Loading level0 PTE from 0x100cb93c8
275495658001: board.processor.switch.core.mmu.dtb.walker: Got level0 PTE: 0x4041a4d7
275495658001: board.processor.switch.core.mmu.dtb: insert(vpn=0x79000, asid=0): ppn=0x101069 pte=0x4041a4d7 size=0x1000
275495658001: board.processor.switch.core.mmu.dtb: lookup(vpn=0x79078, asid=0): hit ppn 0x101069
275495741000: board.processor.switch.core.mmu.itb: lookup(vpn=0x14818, asid=0): hit ppn 0x10102e
275495741000: board.processor.switch.core.mmu.itb: translate(vpn=0x14818, asid=0): 0x10102e818
275495743000: board.processor.switch.core.mmu.itb: lookup(vpn=0x1481c, asid=0): hit ppn 0x10102e
275495743000: board.processor.switch.core.mmu.itb: translate(vpn=0x1481c, asid=0): 0x10102e81c
275495745000: board.processor.switch.core.mmu.itb: lookup(vpn=0x148ec, asid=0): hit ppn 0x10102e
275495745000: board.processor.switch.core.mmu.itb: translate(vpn=0x148ec, asid=0): 0x10102e8ec
275495799000: board.processor.switch.core.mmu.itb: lookup(vpn=0x148f0, asid=0): hit ppn 0x10102e
275495799000: board.processor.switch.core.mmu.itb: translate(vpn=0x148f0, asid=0): 0x10102e8f0
275495801000: board.processor.switch.core.mmu.itb: lookup(vpn=0x148f0, asid=0): hit ppn 0x10102e
275495801000: board.processor.switch.core.mmu.itb: translate(vpn=0x148f0, asid=0): 0x10102e8f0
275495803000: board.processor.switch.core.mmu.itb: lookup(vpn=0x148f4, asid=0): hit ppn 0x10102e
275495803000: board.processor.switch.core.mmu.itb: translate(vpn=0x148f4, asid=0): 0x10102e8f4
275495805000: board.processor.switch.core.mmu.dtb: lookup(vpn=0x80b10, asid=0): hit ppn 0x101087
275495805000: board.processor.switch.core.mmu.dtb: translate(vpn=0x80b10, asid=0): 0x101087b10
275495859000: board.processor.switch.core.mmu.itb: lookup(vpn=0x148f8, asid=0): hit ppn 0x10102e
275495859000: board.processor.switch.core.mmu.itb: translate(vpn=0x148f8, asid=0): 0x10102e8f8
275495861000: board.processor.switch.core.mmu.itb: lookup(vpn=0x1481c, asid=0): hit ppn 0x10102e
275495861000: board.processor.switch.core.mmu.itb: translate(vpn=0x1481c, asid=0): 0x10102e81c
275495863000: board.processor.switch.core.mmu.itb: lookup(vpn=0x14820, asid=0): hit ppn 0x10102e
275495863000: board.processor.switch.core.mmu.itb: translate(vpn=0x14820, asid=0): 0x10102e820
275495865000: board.processor.switch.core.mmu.dtb: lookup(vpn=0x80000, asid=0): hit ppn 0x101087
275495865000: board.processor.switch.core.mmu.dtb: translate(vpn=0x80000, asid=0): 0x101087000
275495919000: board.processor.switch.core.mmu.itb: lookup(vpn=0x14820, asid=0): hit ppn 0x10102e
275495919000: board.processor.switch.core.mmu.itb: translate(vpn=0x14820, asid=0): 0x10102e820
275495921000: board.processor.switch.core.mmu.itb: lookup(vpn=0x14824, asid=0): hit ppn 0x10102e
275495921000: board.processor.switch.core.mmu.itb: translate(vpn=0x14824, asid=0): 0x10102e824
275495923000: board.processor.switch.core.mmu.itb: lookup(vpn=0x14928, asid=0): hit ppn 0x10102e
275495923000: board.processor.switch.core.mmu.itb: translate(vpn=0x14928, asid=0): 0x10102e928
275495977000: board.processor.switch.core.mmu.itb: lookup(vpn=0x1492c, asid=0): hit ppn 0x10102e
275495977000: board.processor.switch.core.mmu.itb: translate(vpn=0x1492c, asid=0): 0x10102e92c
275495979000: board.processor.switch.core.mmu.itb: lookup(vpn=0x14930, asid=0): hit ppn 0x10102e
275495979000: board.processor.switch.core.mmu.itb: translate(vpn=0x14930, asid=0): 0x10102e930
275495981000: board.processor.switch.core.mmu.itb: lookup(vpn=0x14934, asid=0): hit ppn 0x10102e
275495981000: board.processor.switch.core.mmu.itb: translate(vpn=0x14934, asid=0): 0x10102e934
275495983000: board.processor.switch.core.mmu.itb: lookup(vpn=0x134f0, asid=0): miss ppn 0
275495983000: board.processor.switch.core.mmu.itb.walker: Performing table walk for address 0x134f0
275495983000: board.processor.switch.core.mmu.itb.walker: Loading level2 PTE from 0x100ca9000
275495984001: board.processor.switch.core.mmu.itb.walker: Got level2 PTE: 0x40319801
275495984001: board.processor.switch.core.mmu.itb.walker: Loading level1 PTE from 0x100c66000
275495986001: board.processor.switch.core.mmu.itb.walker: Got level1 PTE: 0x4032e401
275495986001: board.processor.switch.core.mmu.itb.walker: Loading level0 PTE from 0x100cb9098
275495988001: board.processor.switch.core.mmu.itb.walker: Got level0 PTE: 0x4040285b
275495988001: board.processor.switch.core.mmu.itb: insert(vpn=0x13000, asid=0): ppn=0x10100a pte=0x4040285b size=0x1000
275495988001: board.processor.switch.core.mmu.itb: lookup(vpn=0x134f0, asid=0): hit ppn 0x10100a
275496057000: board.processor.switch.core.mmu.itb: lookup(vpn=0x134f0, asid=0): hit ppn 0x10100a
275496057000: board.processor.switch.core.mmu.itb: translate(vpn=0x134f0, asid=0): 0x10100a4f0
275496059000: board.processor.switch.core.mmu.dtb: lookup(vpn=0x3fffcbbb88, asid=0): hit ppn 0x101013
275496059000: board.processor.switch.core.mmu.dtb: translate(vpn=0x3fffcbbb88, asid=0): 0x101013b88
275496061000: board.processor.switch.core.mmu.itb: lookup(vpn=0x134f4, asid=0): hit ppn 0x10100a
275496061000: board.processor.switch.core.mmu.itb: translate(vpn=0x134f4, asid=0): 0x10100a4f4
275496063000: board.processor.switch.core.mmu.dtb: lookup(vpn=0x3fffcbbb30, asid=0): hit ppn 0x101013
275496063000: board.processor.switch.core.mmu.dtb: translate(vpn=0x3fffcbbb30, asid=0): 0x101013b30
275496117000: board.processor.switch.core.mmu.itb: lookup(vpn=0x134f4, asid=0): hit ppn 0x10100a
275496117000: board.processor.switch.core.mmu.itb: translate(vpn=0x134f4, asid=0): 0x10100a4f4
275496119000: board.processor.switch.core.mmu.itb: lookup(vpn=0x134f8, asid=0): hit ppn 0x10100a
275496119000: board.processor.switch.core.mmu.itb: translate(vpn=0x134f8, asid=0): 0x10100a4f8
275496121000: board.processor.switch.core.mmu.itb: lookup(vpn=0x134f8, asid=0): hit ppn 0x10100a
275496121000: board.processor.switch.core.mmu.itb: translate(vpn=0x134f8, asid=0): 0x10100a4f8
275496123000: board.processor.switch.core.mmu.dtb: lookup(vpn=0x3fffcbbb80, asid=0): hit ppn 0x101013
275496123000: board.processor.switch.core.mmu.dtb: translate(vpn=0x3fffcbbb80, asid=0): 0x101013b80
275496125000: board.processor.switch.core.mmu.itb: lookup(vpn=0x134fc, asid=0): hit ppn 0x10100a
275496125000: board.processor.switch.core.mmu.itb: translate(vpn=0x134fc, asid=0): 0x10100a4fc
275496127000: board.processor.switch.core.mmu.dtb: lookup(vpn=0x3fffcbbb70, asid=0): hit ppn 0x101013
275496127000: board.processor.switch.core.mmu.dtb: translate(vpn=0x3fffcbbb70, asid=0): 0x101013b70
275496181000: board.processor.switch.core.mmu.itb: lookup(vpn=0x134fc, asid=0): hit ppn 0x10100a
275496181000: board.processor.switch.core.mmu.itb: translate(vpn=0x134fc, asid=0): 0x10100a4fc
275496183000: board.processor.switch.core.mmu.dtb: lookup(vpn=0x3fffcbbb68, asid=0): hit ppn 0x101013
275496183000: board.processor.switch.core.mmu.dtb: translate(vpn=0x3fffcbbb68, asid=0): 0x101013b68
275496185000: board.processor.switch.core.mmu.itb: lookup(vpn=0x13500, asid=0): hit ppn 0x10100a
275496185000: board.processor.switch.core.mmu.itb: translate(vpn=0x13500, asid=0): 0x10100a500
275496239000: board.processor.switch.core.mmu.dtb: lookup(vpn=0x3fffcbbb78, asid=0): hit ppn 0x101013
275496239000: board.processor.switch.core.mmu.dtb: translate(vpn=0x3fffcbbb78, asid=0): 0x101013b78
275496241000: board.processor.switch.core.mmu.itb: lookup(vpn=0x13500, asid=0): hit ppn 0x10100a
275496241000: board.processor.switch.core.mmu.itb: translate(vpn=0x13500, asid=0): 0x10100a500
275496243000: board.processor.switch.core.mmu.dtb: lookup(vpn=0x3fffcbbb60, asid=0): hit ppn 0x101013
275496243000: board.processor.switch.core.mmu.dtb: translate(vpn=0x3fffcbbb60, asid=0): 0x101013b60
275496245000: board.processor.switch.core.mmu.itb: lookup(vpn=0x13504, asid=0): hit ppn 0x10100a
275496245000: board.processor.switch.core.mmu.itb: translate(vpn=0x13504, asid=0): 0x10100a504
275496247000: board.processor.switch.core.mmu.itb: lookup(vpn=0x13508, asid=0): hit ppn 0x10100a
275496247000: board.processor.switch.core.mmu.itb: translate(vpn=0x13508, asid=0): 0x10100a508
275496249000: board.processor.switch.core.mmu.itb: lookup(vpn=0x13508, asid=0): hit ppn 0x10100a
275496249000: board.processor.switch.core.mmu.itb: translate(vpn=0x13508, asid=0): 0x10100a508
275496251000: board.processor.switch.core.mmu.itb: lookup(vpn=0x1350c, asid=0): hit ppn 0x10100a
275496251000: board.processor.switch.core.mmu.itb: translate(vpn=0x1350c, asid=0): 0x10100a50c
275496253000: board.processor.switch.core.mmu.itb: lookup(vpn=0x1350c, asid=0): hit ppn 0x10100a
275496253000: board.processor.switch.core.mmu.itb: translate(vpn=0x1350c, asid=0): 0x10100a50c
275496255000: board.processor.switch.core.mmu.itb: lookup(vpn=0x13510, asid=0): hit ppn 0x10100a
275496255000: board.processor.switch.core.mmu.itb: translate(vpn=0x13510, asid=0): 0x10100a510
275496257000: board.processor.switch.core.mmu.itb: lookup(vpn=0x137c8, asid=0): hit ppn 0x10100a
275496257000: board.processor.switch.core.mmu.itb: translate(vpn=0x137c8, asid=0): 0x10100a7c8
275496311000: board.processor.switch.core.mmu.itb: lookup(vpn=0x137cc, asid=0): hit ppn 0x10100a
275496311000: board.processor.switch.core.mmu.itb: translate(vpn=0x137cc, asid=0): 0x10100a7cc
275496313000: board.processor.switch.core.mmu.itb: lookup(vpn=0x137cc, asid=0): hit ppn 0x10100a
275496313000: board.processor.switch.core.mmu.itb: translate(vpn=0x137cc, asid=0): 0x10100a7cc
275496315000: board.processor.switch.core.mmu.itb: lookup(vpn=0x137d0, asid=0): hit ppn 0x10100a
275496315000: board.processor.switch.core.mmu.itb: translate(vpn=0x137d0, asid=0): 0x10100a7d0
275496317000: board.processor.switch.core.mmu.itb: lookup(vpn=0x137d0, asid=0): hit ppn 0x10100a
275496317000: board.processor.switch.core.mmu.itb: translate(vpn=0x137d0, asid=0): 0x10100a7d0
275496319000: board.processor.switch.core.mmu.itb: lookup(vpn=0x137d4, asid=0): hit ppn 0x10100a
275496319000: board.processor.switch.core.mmu.itb: translate(vpn=0x137d4, asid=0): 0x10100a7d4
275496321000: board.processor.switch.core.mmu.itb: lookup(vpn=0x137d4, asid=0): hit ppn 0x10100a
275496321000: board.processor.switch.core.mmu.itb: translate(vpn=0x137d4, asid=0): 0x10100a7d4
275496323000: board.processor.switch.core.mmu.itb: lookup(vpn=0x137d8, asid=0): hit ppn 0x10100a
275496323000: board.processor.switch.core.mmu.itb: translate(vpn=0x137d8, asid=0): 0x10100a7d8
275496325000: board.processor.switch.core.mmu.dtb: lookup(vpn=0x7f564, asid=0): hit ppn 0x101034
275496325000: board.processor.switch.core.mmu.dtb: translate(vpn=0x7f564, asid=0): 0x101034564
275496327000: board.processor.switch.core.mmu.itb: lookup(vpn=0x137d8, asid=0): hit ppn 0x10100a
275496327000: board.processor.switch.core.mmu.itb: translate(vpn=0x137d8, asid=0): 0x10100a7d8
275496329000: board.processor.switch.core.mmu.itb: lookup(vpn=0x137dc, asid=0): hit ppn 0x10100a
275496329000: board.processor.switch.core.mmu.itb: translate(vpn=0x137dc, asid=0): 0x10100a7dc
275496331000: board.processor.switch.core.mmu.itb: lookup(vpn=0x138b8, asid=0): hit ppn 0x10100a
275496331000: board.processor.switch.core.mmu.itb: translate(vpn=0x138b8, asid=0): 0x10100a8b8
275496385000: board.processor.switch.core.mmu.itb: lookup(vpn=0x138bc, asid=0): hit ppn 0x10100a
275496385000: board.processor.switch.core.mmu.itb: translate(vpn=0x138bc, asid=0): 0x10100a8bc
275496387000: board.processor.switch.core.mmu.itb: lookup(vpn=0x138c0, asid=0): hit ppn 0x10100a
275496387000: board.processor.switch.core.mmu.itb: translate(vpn=0x138c0, asid=0): 0x10100a8c0
275496441000: board.processor.switch.core.mmu.itb: lookup(vpn=0x138c4, asid=0): hit ppn 0x10100a
275496441000: board.processor.switch.core.mmu.itb: translate(vpn=0x138c4, asid=0): 0x10100a8c4
275496443000: board.processor.switch.core.mmu.itb: lookup(vpn=0x138c4, asid=0): hit ppn 0x10100a
275496443000: board.processor.switch.core.mmu.itb: translate(vpn=0x138c4, asid=0): 0x10100a8c4
275496445000: board.processor.switch.core.mmu.dtb: lookup(vpn=0x790b8, asid=0): hit ppn 0x101069
275496445000: board.processor.switch.core.mmu.dtb: translate(vpn=0x790b8, asid=0): 0x1010690b8
275496499000: board.processor.switch.core.mmu.itb: lookup(vpn=0x138c8, asid=0): hit ppn 0x10100a
275496499000: board.processor.switch.core.mmu.itb: translate(vpn=0x138c8, asid=0): 0x10100a8c8
275496501000: board.processor.switch.core.mmu.itb: lookup(vpn=0x138c8, asid=0): hit ppn 0x10100a
275496501000: board.processor.switch.core.mmu.itb: translate(vpn=0x138c8, asid=0): 0x10100a8c8
275496503000: board.processor.switch.core.mmu.itb: lookup(vpn=0x138cc, asid=0): hit ppn 0x10100a
275496503000: board.processor.switch.core.mmu.itb: translate(vpn=0x138cc, asid=0): 0x10100a8cc
275496505000: board.processor.switch.core.mmu.itb: lookup(vpn=0x138d0, asid=0): hit ppn 0x10100a
275496505000: board.processor.switch.core.mmu.itb: translate(vpn=0x138d0, asid=0): 0x10100a8d0
275496507000: board.processor.switch.core.mmu.itb: lookup(vpn=0x138d4, asid=0): hit ppn 0x10100a
275496507000: board.processor.switch.core.mmu.itb: translate(vpn=0x138d4, asid=0): 0x10100a8d4
275496509000: board.processor.switch.core.mmu.itb: lookup(vpn=0x138d8, asid=0): hit ppn 0x10100a
275496509000: board.processor.switch.core.mmu.itb: translate(vpn=0x138d8, asid=0): 0x10100a8d8
275496511000: board.processor.switch.core.mmu.itb: lookup(vpn=0x138d8, asid=0): hit ppn 0x10100a
275496511000: board.processor.switch.core.mmu.itb: translate(vpn=0x138d8, asid=0): 0x10100a8d8
275496513000: board.processor.switch.core.mmu.itb: lookup(vpn=0x138dc, asid=0): hit ppn 0x10100a
275496513000: board.processor.switch.core.mmu.itb: translate(vpn=0x138dc, asid=0): 0x10100a8dc
275496515000: board.processor.switch.core.mmu.itb: lookup(vpn=0x138dc, asid=0): hit ppn 0x10100a
275496515000: board.processor.switch.core.mmu.itb: translate(vpn=0x138dc, asid=0): 0x10100a8dc
275496517000: board.processor.switch.core.mmu.itb: lookup(vpn=0x137e8, asid=0): hit ppn 0x10100a
275496517000: board.processor.switch.core.mmu.itb: translate(vpn=0x137e8, asid=0): 0x10100a7e8
275496519000: board.processor.switch.core.mmu.itb: lookup(vpn=0x137e8, asid=0): hit ppn 0x10100a
275496519000: board.processor.switch.core.mmu.itb: translate(vpn=0x137e8, asid=0): 0x10100a7e8
275496521000: board.processor.switch.core.mmu.dtb: lookup(vpn=0x79130, asid=0): hit ppn 0x101069
275496521000: board.processor.switch.core.mmu.dtb: translate(vpn=0x79130, asid=0): 0x101069130
275496575000: board.processor.switch.core.mmu.itb: lookup(vpn=0x137ec, asid=0): hit ppn 0x10100a
275496575000: board.processor.switch.core.mmu.itb: translate(vpn=0x137ec, asid=0): 0x10100a7ec
275496577000: board.processor.switch.core.mmu.itb: lookup(vpn=0x137f0, asid=0): hit ppn 0x10100a
275496577000: board.processor.switch.core.mmu.itb: translate(vpn=0x137f0, asid=0): 0x10100a7f0
275496579000: board.processor.switch.core.mmu.itb: lookup(vpn=0x13990, asid=0): hit ppn 0x10100a
275496579000: board.processor.switch.core.mmu.itb: translate(vpn=0x13990, asid=0): 0x10100a990
275496633000: board.processor.switch.core.mmu.dtb: lookup(vpn=0x3fffcbbb58, asid=0): hit ppn 0x101013
275496633000: board.processor.switch.core.mmu.dtb: translate(vpn=0x3fffcbbb58, asid=0): 0x101013b58
275496635000: board.processor.switch.core.mmu.itb: lookup(vpn=0x13994, asid=0): hit ppn 0x10100a
275496635000: board.processor.switch.core.mmu.itb: translate(vpn=0x13994, asid=0): 0x10100a994
275496637000: board.processor.switch.core.mmu.dtb: lookup(vpn=0x3fffcbbb50, asid=0): hit ppn 0x101013
275496637000: board.processor.switch.core.mmu.dtb: translate(vpn=0x3fffcbbb50, asid=0): 0x101013b50
275496639000: board.processor.switch.core.mmu.itb: lookup(vpn=0x13994, asid=0): hit ppn 0x10100a
275496639000: board.processor.switch.core.mmu.itb: translate(vpn=0x13994, asid=0): 0x10100a994
275496641000: board.processor.switch.core.mmu.dtb: lookup(vpn=0x3fffcbbb48, asid=0): hit ppn 0x101013
275496641000: board.processor.switch.core.mmu.dtb: translate(vpn=0x3fffcbbb48, asid=0): 0x101013b48
275496643000: board.processor.switch.core.mmu.itb: lookup(vpn=0x13998, asid=0): hit ppn 0x10100a
275496643000: board.processor.switch.core.mmu.itb: translate(vpn=0x13998, asid=0): 0x10100a998
275496645000: board.processor.switch.core.mmu.dtb: lookup(vpn=0x3fffcbbb40, asid=0): hit ppn 0x101013
275496645000: board.processor.switch.core.mmu.dtb: translate(vpn=0x3fffcbbb40, asid=0): 0x101013b40
275496647000: board.processor.switch.core.mmu.itb: lookup(vpn=0x13998, asid=0): hit ppn 0x10100a
275496647000: board.processor.switch.core.mmu.itb: translate(vpn=0x13998, asid=0): 0x10100a998
275496649000: board.processor.switch.core.mmu.dtb: lookup(vpn=0x3fffcbbb38, asid=0): hit ppn 0x101013
275496649000: board.processor.switch.core.mmu.dtb: translate(vpn=0x3fffcbbb38, asid=0): 0x101013b38
275496651000: board.processor.switch.core.mmu.itb: lookup(vpn=0x1399c, asid=0): hit ppn 0x10100a
275496651000: board.processor.switch.core.mmu.itb: translate(vpn=0x1399c, asid=0): 0x10100a99c
275496653000: board.processor.switch.core.mmu.itb: lookup(vpn=0x136cc, asid=0): hit ppn 0x10100a
275496653000: board.processor.switch.core.mmu.itb: translate(vpn=0x136cc, asid=0): 0x10100a6cc
275496707000: board.processor.switch.core.mmu.itb: lookup(vpn=0x136d0, asid=0): hit ppn 0x10100a
275496707000: board.processor.switch.core.mmu.itb: translate(vpn=0x136d0, asid=0): 0x10100a6d0
275496709000: board.processor.switch.core.mmu.itb: lookup(vpn=0x136d0, asid=0): hit ppn 0x10100a
275496709000: board.processor.switch.core.mmu.itb: translate(vpn=0x136d0, asid=0): 0x10100a6d0
275496711000: board.processor.switch.core.mmu.dtb: lookup(vpn=0x80788, asid=0): hit ppn 0x101087
275496711000: board.processor.switch.core.mmu.dtb: translate(vpn=0x80788, asid=0): 0x101087788
275496713000: board.processor.switch.core.mmu.itb: lookup(vpn=0x136d4, asid=0): hit ppn 0x10100a
275496713000: board.processor.switch.core.mmu.itb: translate(vpn=0x136d4, asid=0): 0x10100a6d4
275496715000: board.processor.switch.core.mmu.itb: lookup(vpn=0x136d8, asid=0): hit ppn 0x10100a
275496715000: board.processor.switch.core.mmu.itb: translate(vpn=0x136d8, asid=0): 0x10100a6d8
275496717000: board.processor.switch.core.mmu.itb: lookup(vpn=0x136dc, asid=0): hit ppn 0x10100a
275496717000: board.processor.switch.core.mmu.itb: translate(vpn=0x136dc, asid=0): 0x10100a6dc
275496719000: board.processor.switch.core.mmu.itb: lookup(vpn=0x136dc, asid=0): hit ppn 0x10100a
275496719000: board.processor.switch.core.mmu.itb: translate(vpn=0x136dc, asid=0): 0x10100a6dc
275496721000: board.processor.switch.core.mmu.itb: lookup(vpn=0x136e0, asid=0): hit ppn 0x10100a
275496721000: board.processor.switch.core.mmu.itb: translate(vpn=0x136e0, asid=0): 0x10100a6e0
275496723000: board.processor.switch.core.mmu.itb: lookup(vpn=0x136e4, asid=0): hit ppn 0x10100a
275496723000: board.processor.switch.core.mmu.itb: translate(vpn=0x136e4, asid=0): 0x10100a6e4
275496725000: board.processor.switch.core.mmu.dtb: lookup(vpn=0x79078, asid=0): hit ppn 0x101069
275496725000: board.processor.switch.core.mmu.dtb: translate(vpn=0x79078, asid=0): 0x101069078
275496727000: board.processor.switch.core.mmu.itb: lookup(vpn=0x136e8, asid=0): hit ppn 0x10100a
275496727000: board.processor.switch.core.mmu.itb: translate(vpn=0x136e8, asid=0): 0x10100a6e8
275496729000: board.processor.switch.core.mmu.itb: lookup(vpn=0x136ec, asid=0): hit ppn 0x10100a
275496729000: board.processor.switch.core.mmu.itb: translate(vpn=0x136ec, asid=0): 0x10100a6ec
275496731000: board.processor.switch.core.mmu.itb: lookup(vpn=0x136f0, asid=0): hit ppn 0x10100a
275496731000: board.processor.switch.core.mmu.itb: translate(vpn=0x136f0, asid=0): 0x10100a6f0
275496733000: board.processor.switch.core.mmu.itb: lookup(vpn=0x136f4, asid=0): hit ppn 0x10100a
275496733000: board.processor.switch.core.mmu.itb: translate(vpn=0x136f4, asid=0): 0x10100a6f4
275496735000: board.processor.switch.core.mmu.dtb: lookup(vpn=0x79120, asid=0): hit ppn 0x101069
275496735000: board.processor.switch.core.mmu.dtb: translate(vpn=0x79120, asid=0): 0x101069120
275496737000: board.processor.switch.core.mmu.itb: lookup(vpn=0x136f8, asid=0): hit ppn 0x10100a
275496737000: board.processor.switch.core.mmu.itb: translate(vpn=0x136f8, asid=0): 0x10100a6f8
275496739000: board.processor.switch.core.mmu.itb: lookup(vpn=0x136fc, asid=0): hit ppn 0x10100a
275496739000: board.processor.switch.core.mmu.itb: translate(vpn=0x136fc, asid=0): 0x10100a6fc
275496741000: board.processor.switch.core.mmu.itb: lookup(vpn=0x136fc, asid=0): hit ppn 0x10100a
275496741000: board.processor.switch.core.mmu.itb: translate(vpn=0x136fc, asid=0): 0x10100a6fc
275496743000: board.processor.switch.core.mmu.itb: lookup(vpn=0x13700, asid=0): hit ppn 0x10100a
275496743000: board.processor.switch.core.mmu.itb: translate(vpn=0x13700, asid=0): 0x10100a700
275496797000: board.processor.switch.core.mmu.itb: lookup(vpn=0x13aa0, asid=0): hit ppn 0x10100a
275496797000: board.processor.switch.core.mmu.itb: translate(vpn=0x13aa0, asid=0): 0x10100aaa0
275496851000: board.processor.switch.core.mmu.itb: lookup(vpn=0x13aa4, asid=0): hit ppn 0x10100a
275496851000: board.processor.switch.core.mmu.itb: translate(vpn=0x13aa4, asid=0): 0x10100aaa4
275496853000: board.processor.switch.core.mmu.itb: lookup(vpn=0x13aa8, asid=0): hit ppn 0x10100a
275496853000: board.processor.switch.core.mmu.itb: translate(vpn=0x13aa8, asid=0): 0x10100aaa8
275496855000: board.processor.switch.core.mmu.dtb: lookup(vpn=0x3fffcbbb28, asid=0): hit ppn 0x101013
275496855000: board.processor.switch.core.mmu.dtb: translate(vpn=0x3fffcbbb28, asid=0): 0x101013b28
275496857000: board.processor.switch.core.mmu.itb: lookup(vpn=0x13aa8, asid=0): hit ppn 0x10100a
275496857000: board.processor.switch.core.mmu.itb: translate(vpn=0x13aa8, asid=0): 0x10100aaa8
275496859000: board.processor.switch.core.mmu.itb: lookup(vpn=0x13aac, asid=0): hit ppn 0x10100a
275496859000: board.processor.switch.core.mmu.itb: translate(vpn=0x13aac, asid=0): 0x10100aaac
275496861000: board.processor.switch.core.mmu.itb: lookup(vpn=0x13aac, asid=0): hit ppn 0x10100a
275496861000: board.processor.switch.core.mmu.itb: translate(vpn=0x13aac, asid=0): 0x10100aaac
275496863000: board.processor.switch.core.mmu.itb: lookup(vpn=0x13ab0, asid=0): hit ppn 0x10100a
275496863000: board.processor.switch.core.mmu.itb: translate(vpn=0x13ab0, asid=0): 0x10100aab0
275496865000: board.processor.switch.core.mmu.itb: lookup(vpn=0x13ab0, asid=0): hit ppn 0x10100a
275496865000: board.processor.switch.core.mmu.itb: translate(vpn=0x13ab0, asid=0): 0x10100aab0
275496867000: board.processor.switch.core.mmu.itb: lookup(vpn=0x13ab4, asid=0): hit ppn 0x10100a
275496867000: board.processor.switch.core.mmu.itb: translate(vpn=0x13ab4, asid=0): 0x10100aab4
275496869000: board.processor.switch.core.mmu.itb: lookup(vpn=0x13ab4, asid=0): hit ppn 0x10100a
275496869000: board.processor.switch.core.mmu.itb: translate(vpn=0x13ab4, asid=0): 0x10100aab4
275496871000: board.processor.switch.core.mmu.itb: lookup(vpn=0x13ab8, asid=0): hit ppn 0x10100a
275496871000: board.processor.switch.core.mmu.itb: translate(vpn=0x13ab8, asid=0): 0x10100aab8
275496873000: board.processor.switch.core.mmu.itb: lookup(vpn=0x13ab8, asid=0): hit ppn 0x10100a
275496873000: board.processor.switch.core.mmu.itb: translate(vpn=0x13ab8, asid=0): 0x10100aab8
275496875000: board.processor.switch.core.mmu.itb: lookup(vpn=0x13abc, asid=0): hit ppn 0x10100a
275496875000: board.processor.switch.core.mmu.itb: translate(vpn=0x13abc, asid=0): 0x10100aabc
275496877000: board.processor.switch.core.mmu.itb: lookup(vpn=0x13abc, asid=0): hit ppn 0x10100a
275496877000: board.processor.switch.core.mmu.itb: translate(vpn=0x13abc, asid=0): 0x10100aabc
275496879000: board.processor.switch.core.mmu.itb: lookup(vpn=0x13ac0, asid=0): hit ppn 0x10100a
275496879000: board.processor.switch.core.mmu.itb: translate(vpn=0x13ac0, asid=0): 0x10100aac0
275496933000: board.processor.switch.core.mmu.itb: lookup(vpn=0x13ac0, asid=0): hit ppn 0x10100a
275496933000: board.processor.switch.core.mmu.itb: translate(vpn=0x13ac0, asid=0): 0x10100aac0
275496935000: board.processor.switch.core.mmu.itb: lookup(vpn=0x13ac4, asid=0): hit ppn 0x10100a
275496935000: board.processor.switch.core.mmu.itb: translate(vpn=0x13ac4, asid=0): 0x10100aac4
275496937000: board.processor.switch.core.mmu.itb: lookup(vpn=0x13ac4, asid=0): hit ppn 0x10100a
275496937000: board.processor.switch.core.mmu.itb: translate(vpn=0x13ac4, asid=0): 0x10100aac4
275496939000: board.processor.switch.core.mmu.itb: lookup(vpn=0x13ac8, asid=0): hit ppn 0x10100a
275496939000: board.processor.switch.core.mmu.itb: translate(vpn=0x13ac8, asid=0): 0x10100aac8
275496941000: board.processor.switch.core.mmu.itb: lookup(vpn=0x13ac8, asid=0): hit ppn 0x10100a
275496941000: board.processor.switch.core.mmu.itb: translate(vpn=0x13ac8, asid=0): 0x10100aac8
275496943000: board.processor.switch.core.mmu.dtb: lookup(vpn=0x79908, asid=0): hit ppn 0x101069
275496943000: board.processor.switch.core.mmu.dtb: translate(vpn=0x79908, asid=0): 0x101069908
275496997000: board.processor.switch.core.mmu.itb: lookup(vpn=0x13acc, asid=0): hit ppn 0x10100a
275496997000: board.processor.switch.core.mmu.itb: translate(vpn=0x13acc, asid=0): 0x10100aacc
275496999000: board.processor.switch.core.mmu.itb: lookup(vpn=0x13acc, asid=0): hit ppn 0x10100a
275496999000: board.processor.switch.core.mmu.itb: translate(vpn=0x13acc, asid=0): 0x10100aacc
275497001000: board.processor.switch.core.mmu.itb: lookup(vpn=0x13ad0, asid=0): hit ppn 0x10100a
275497001000: board.processor.switch.core.mmu.itb: translate(vpn=0x13ad0, asid=0): 0x10100aad0
275497003000: board.processor.switch.core.mmu.itb: lookup(vpn=0x13ad0, asid=0): hit ppn 0x10100a
275497003000: board.processor.switch.core.mmu.itb: translate(vpn=0x13ad0, asid=0): 0x10100aad0
275497005000: board.processor.switch.core.mmu.itb: lookup(vpn=0x13ad4, asid=0): hit ppn 0x10100a
275497005000: board.processor.switch.core.mmu.itb: translate(vpn=0x13ad4, asid=0): 0x10100aad4
275497007000: board.processor.switch.core.mmu.itb: lookup(vpn=0x13ad8, asid=0): hit ppn 0x10100a
275497007000: board.processor.switch.core.mmu.itb: translate(vpn=0x13ad8, asid=0): 0x10100aad8
275497009000: board.processor.switch.core.mmu.itb: lookup(vpn=0x13bd4, asid=0): hit ppn 0x10100a
275497009000: board.processor.switch.core.mmu.itb: translate(vpn=0x13bd4, asid=0): 0x10100abd4
275497063000: board.processor.switch.core.mmu.itb: lookup(vpn=0x13bd8, asid=0): hit ppn 0x10100a
275497063000: board.processor.switch.core.mmu.itb: translate(vpn=0x13bd8, asid=0): 0x10100abd8
275497065000: board.processor.switch.core.mmu.itb: lookup(vpn=0x13bd8, asid=0): hit ppn 0x10100a
275497065000: board.processor.switch.core.mmu.itb: translate(vpn=0x13bd8, asid=0): 0x10100abd8
275497067000: board.processor.switch.core.mmu.itb: lookup(vpn=0x13bdc, asid=0): hit ppn 0x10100a
275497067000: board.processor.switch.core.mmu.itb: translate(vpn=0x13bdc, asid=0): 0x10100abdc
275497069000: board.processor.switch.core.mmu.itb: lookup(vpn=0x13bdc, asid=0): hit ppn 0x10100a
275497069000: board.processor.switch.core.mmu.itb: translate(vpn=0x13bdc, asid=0): 0x10100abdc
275497071000: board.processor.switch.core.mmu.itb: lookup(vpn=0x13be0, asid=0): hit ppn 0x10100a
275497071000: board.processor.switch.core.mmu.itb: translate(vpn=0x13be0, asid=0): 0x10100abe0
275497073000: board.processor.switch.core.mmu.itb: lookup(vpn=0x13be4, asid=0): hit ppn 0x10100a
275497073000: board.processor.switch.core.mmu.itb: translate(vpn=0x13be4, asid=0): 0x10100abe4
275497075000: board.processor.switch.core.mmu.itb: lookup(vpn=0x13be4, asid=0): hit ppn 0x10100a
275497075000: board.processor.switch.core.mmu.itb: translate(vpn=0x13be4, asid=0): 0x10100abe4
275497077000: board.processor.switch.core.mmu.itb: lookup(vpn=0x13be8, asid=0): hit ppn 0x10100a
275497077000: board.processor.switch.core.mmu.itb: translate(vpn=0x13be8, asid=0): 0x10100abe8
275497079000: board.processor.switch.core.mmu.itb: lookup(vpn=0x13bf4, asid=0): hit ppn 0x10100a
275497079000: board.processor.switch.core.mmu.itb: translate(vpn=0x13bf4, asid=0): 0x10100abf4
275497081000: board.processor.switch.core.mmu.itb: lookup(vpn=0x13bf8, asid=0): hit ppn 0x10100a
275497081000: board.processor.switch.core.mmu.itb: translate(vpn=0x13bf8, asid=0): 0x10100abf8
275497083000: board.processor.switch.core.mmu.itb: lookup(vpn=0x13bf8, asid=0): hit ppn 0x10100a
275497083000: board.processor.switch.core.mmu.itb: translate(vpn=0x13bf8, asid=0): 0x10100abf8
275497085000: board.processor.switch.core.mmu.itb: lookup(vpn=0x13bfc, asid=0): hit ppn 0x10100a
275497085000: board.processor.switch.core.mmu.itb: translate(vpn=0x13bfc, asid=0): 0x10100abfc
275497087000: board.processor.switch.core.mmu.itb: lookup(vpn=0x13be8, asid=0): hit ppn 0x10100a
275497087000: board.processor.switch.core.mmu.itb: translate(vpn=0x13be8, asid=0): 0x10100abe8
275497089000: board.processor.switch.core.mmu.dtb: lookup(vpn=0x7990c, asid=0): hit ppn 0x101069
275497089000: board.processor.switch.core.mmu.dtb: translate(vpn=0x7990c, asid=0): 0x10106990c
275497091000: board.processor.switch.core.mmu.itb: lookup(vpn=0x13bec, asid=0): hit ppn 0x10100a
275497091000: board.processor.switch.core.mmu.itb: translate(vpn=0x13bec, asid=0): 0x10100abec
275497093000: board.processor.switch.core.mmu.itb: lookup(vpn=0x13bec, asid=0): hit ppn 0x10100a
275497093000: board.processor.switch.core.mmu.itb: translate(vpn=0x13bec, asid=0): 0x10100abec
275497095000: board.processor.switch.core.mmu.itb: lookup(vpn=0x13bf0, asid=0): hit ppn 0x10100a
275497095000: board.processor.switch.core.mmu.itb: translate(vpn=0x13bf0, asid=0): 0x10100abf0
275497097000: board.processor.switch.core.mmu.itb: lookup(vpn=0x13bf0, asid=0): hit ppn 0x10100a
275497097000: board.processor.switch.core.mmu.itb: translate(vpn=0x13bf0, asid=0): 0x10100abf0
275497099000: board.processor.switch.core.mmu.itb: lookup(vpn=0x13bf4, asid=0): hit ppn 0x10100a
275497099000: board.processor.switch.core.mmu.itb: translate(vpn=0x13bf4, asid=0): 0x10100abf4
275497101000: board.processor.switch.core.mmu.itb: lookup(vpn=0x13bf4, asid=0): hit ppn 0x10100a
275497101000: board.processor.switch.core.mmu.itb: translate(vpn=0x13bf4, asid=0): 0x10100abf4
275497103000: board.processor.switch.core.mmu.itb: lookup(vpn=0x13bf8, asid=0): hit ppn 0x10100a
275497103000: board.processor.switch.core.mmu.itb: translate(vpn=0x13bf8, asid=0): 0x10100abf8
275497105000: board.processor.switch.core.mmu.itb: lookup(vpn=0x13bf8, asid=0): hit ppn 0x10100a
275497105000: board.processor.switch.core.mmu.itb: translate(vpn=0x13bf8, asid=0): 0x10100abf8
275497107000: board.processor.switch.core.mmu.itb: lookup(vpn=0x13bfc, asid=0): hit ppn 0x10100a
275497107000: board.processor.switch.core.mmu.itb: translate(vpn=0x13bfc, asid=0): 0x10100abfc
275497109000: board.processor.switch.core.mmu.itb: lookup(vpn=0x13be8, asid=0): hit ppn 0x10100a
275497109000: board.processor.switch.core.mmu.itb: translate(vpn=0x13be8, asid=0): 0x10100abe8
275497111000: board.processor.switch.core.mmu.dtb: lookup(vpn=0x79910, asid=0): hit ppn 0x101069
275497111000: board.processor.switch.core.mmu.dtb: translate(vpn=0x79910, asid=0): 0x101069910
275497113000: board.processor.switch.core.mmu.itb: lookup(vpn=0x13bec, asid=0): hit ppn 0x10100a
275497113000: board.processor.switch.core.mmu.itb: translate(vpn=0x13bec, asid=0): 0x10100abec
275497115000: board.processor.switch.core.mmu.itb: lookup(vpn=0x13bec, asid=0): hit ppn 0x10100a
275497115000: board.processor.switch.core.mmu.itb: translate(vpn=0x13bec, asid=0): 0x10100abec
275497117000: board.processor.switch.core.mmu.itb: lookup(vpn=0x13bf0, asid=0): hit ppn 0x10100a
275497117000: board.processor.switch.core.mmu.itb: translate(vpn=0x13bf0, asid=0): 0x10100abf0
275497119000: board.processor.switch.core.mmu.itb: lookup(vpn=0x13bf0, asid=0): hit ppn 0x10100a
275497119000: board.processor.switch.core.mmu.itb: translate(vpn=0x13bf0, asid=0): 0x10100abf0
275497121000: board.processor.switch.core.mmu.itb: lookup(vpn=0x13bf4, asid=0): hit ppn 0x10100a
275497121000: board.processor.switch.core.mmu.itb: translate(vpn=0x13bf4, asid=0): 0x10100abf4
275497123000: board.processor.switch.core.mmu.itb: lookup(vpn=0x13bf4, asid=0): hit ppn 0x10100a
275497123000: board.processor.switch.core.mmu.itb: translate(vpn=0x13bf4, asid=0): 0x10100abf4
275497125000: board.processor.switch.core.mmu.itb: lookup(vpn=0x13bf8, asid=0): hit ppn 0x10100a
275497125000: board.processor.switch.core.mmu.itb: translate(vpn=0x13bf8, asid=0): 0x10100abf8
275497127000: board.processor.switch.core.mmu.itb: lookup(vpn=0x13bf8, asid=0): hit ppn 0x10100a
275497127000: board.processor.switch.core.mmu.itb: translate(vpn=0x13bf8, asid=0): 0x10100abf8
275497129000: board.processor.switch.core.mmu.itb: lookup(vpn=0x13bfc, asid=0): hit ppn 0x10100a
275497129000: board.processor.switch.core.mmu.itb: translate(vpn=0x13bfc, asid=0): 0x10100abfc
275497131000: board.processor.switch.core.mmu.itb: lookup(vpn=0x13be8, asid=0): hit ppn 0x10100a
275497131000: board.processor.switch.core.mmu.itb: translate(vpn=0x13be8, asid=0): 0x10100abe8
275497133000: board.processor.switch.core.mmu.dtb: lookup(vpn=0x79914, asid=0): hit ppn 0x101069
275497133000: board.processor.switch.core.mmu.dtb: translate(vpn=0x79914, asid=0): 0x101069914
275497135000: board.processor.switch.core.mmu.itb: lookup(vpn=0x13bec, asid=0): hit ppn 0x10100a
275497135000: board.processor.switch.core.mmu.itb: translate(vpn=0x13bec, asid=0): 0x10100abec
275497137000: board.processor.switch.core.mmu.itb: lookup(vpn=0x13bec, asid=0): hit ppn 0x10100a
275497137000: board.processor.switch.core.mmu.itb: translate(vpn=0x13bec, asid=0): 0x10100abec
275497139000: board.processor.switch.core.mmu.itb: lookup(vpn=0x13bf0, asid=0): hit ppn 0x10100a
275497139000: board.processor.switch.core.mmu.itb: translate(vpn=0x13bf0, asid=0): 0x10100abf0
275497141000: board.processor.switch.core.mmu.itb: lookup(vpn=0x13bf0, asid=0): hit ppn 0x10100a
275497141000: board.processor.switch.core.mmu.itb: translate(vpn=0x13bf0, asid=0): 0x10100abf0
275497143000: board.processor.switch.core.mmu.itb: lookup(vpn=0x13bf4, asid=0): hit ppn 0x10100a
275497143000: board.processor.switch.core.mmu.itb: translate(vpn=0x13bf4, asid=0): 0x10100abf4
275497145000: board.processor.switch.core.mmu.itb: lookup(vpn=0x13bf4, asid=0): hit ppn 0x10100a
275497145000: board.processor.switch.core.mmu.itb: translate(vpn=0x13bf4, asid=0): 0x10100abf4
275497147000: board.processor.switch.core.mmu.itb: lookup(vpn=0x13bf8, asid=0): hit ppn 0x10100a
275497147000: board.processor.switch.core.mmu.itb: translate(vpn=0x13bf8, asid=0): 0x10100abf8
275497149000: board.processor.switch.core.mmu.itb: lookup(vpn=0x13bf8, asid=0): hit ppn 0x10100a
275497149000: board.processor.switch.core.mmu.itb: translate(vpn=0x13bf8, asid=0): 0x10100abf8
275497151000: board.processor.switch.core.mmu.itb: lookup(vpn=0x13bfc, asid=0): hit ppn 0x10100a
275497151000: board.processor.switch.core.mmu.itb: translate(vpn=0x13bfc, asid=0): 0x10100abfc
275497153000: board.processor.switch.core.mmu.itb: lookup(vpn=0x13bfc, asid=0): hit ppn 0x10100a
275497153000: board.processor.switch.core.mmu.itb: translate(vpn=0x13bfc, asid=0): 0x10100abfc
275497155000: board.processor.switch.core.mmu.itb: lookup(vpn=0x13c00, asid=0): hit ppn 0x10100a
275497155000: board.processor.switch.core.mmu.itb: translate(vpn=0x13c00, asid=0): 0x10100ac00
275497209000: board.processor.switch.core.mmu.dtb: lookup(vpn=0x79108, asid=0): hit ppn 0x101069
275497209000: board.processor.switch.core.mmu.dtb: translate(vpn=0x79108, asid=0): 0x101069108
275497211000: board.processor.switch.core.mmu.itb: lookup(vpn=0x13c00, asid=0): hit ppn 0x10100a
275497211000: board.processor.switch.core.mmu.itb: translate(vpn=0x13c00, asid=0): 0x10100ac00
275497213000: board.processor.switch.core.mmu.itb: lookup(vpn=0x13c04, asid=0): hit ppn 0x10100a
275497213000: board.processor.switch.core.mmu.itb: translate(vpn=0x13c04, asid=0): 0x10100ac04
275497215000: board.processor.switch.core.mmu.itb: lookup(vpn=0x13c04, asid=0): hit ppn 0x10100a
275497215000: board.processor.switch.core.mmu.itb: translate(vpn=0x13c04, asid=0): 0x10100ac04
275497217000: board.processor.switch.core.mmu.dtb: lookup(vpn=0x814b8, asid=0): miss ppn 0
275497217000: board.processor.switch.core.mmu.dtb.walker: Performing table walk for address 0x814b8
275497217000: board.processor.switch.core.mmu.dtb.walker: Loading level2 PTE from 0x100ca9000
275497218001: board.processor.switch.core.mmu.dtb.walker: Got level2 PTE: 0x40319801
275497218001: board.processor.switch.core.mmu.dtb.walker: Loading level1 PTE from 0x100c66000
275497220001: board.processor.switch.core.mmu.dtb.walker: Got level1 PTE: 0x4032e401
275497220001: board.processor.switch.core.mmu.dtb.walker: Loading level0 PTE from 0x100cb9408
275497222001: board.processor.switch.core.mmu.dtb.walker: Got level0 PTE: 0x404274d7
275497222001: board.processor.switch.core.mmu.dtb: insert(vpn=0x81000, asid=0): ppn=0x10109d pte=0x404274d7 size=0x1000
275497222001: board.processor.switch.core.mmu.dtb: lookup(vpn=0x814b8, asid=0): hit ppn 0x10109d
275497291000: board.processor.switch.core.mmu.itb: lookup(vpn=0x13c08, asid=0): hit ppn 0x10100a
275497291000: board.processor.switch.core.mmu.itb: translate(vpn=0x13c08, asid=0): 0x10100ac08
275497293000: board.processor.switch.core.mmu.dtb: lookup(vpn=0x79930, asid=0): hit ppn 0x101069
275497293000: board.processor.switch.core.mmu.dtb: translate(vpn=0x79930, asid=0): 0x101069930
275497295000: board.processor.switch.core.mmu.itb: lookup(vpn=0x13c0c, asid=0): hit ppn 0x10100a
275497295000: board.processor.switch.core.mmu.itb: translate(vpn=0x13c0c, asid=0): 0x10100ac0c
275497297000: board.processor.switch.core.mmu.itb: lookup(vpn=0x13c0c, asid=0): hit ppn 0x10100a
275497297000: board.processor.switch.core.mmu.itb: translate(vpn=0x13c0c, asid=0): 0x10100ac0c
275497299000: board.processor.switch.core.mmu.itb: lookup(vpn=0x13c10, asid=0): hit ppn 0x10100a
275497299000: board.processor.switch.core.mmu.itb: translate(vpn=0x13c10, asid=0): 0x10100ac10
275497301000: board.processor.switch.core.mmu.itb: lookup(vpn=0x13c10, asid=0): hit ppn 0x10100a
275497301000: board.processor.switch.core.mmu.itb: translate(vpn=0x13c10, asid=0): 0x10100ac10
275497303000: board.processor.switch.core.mmu.itb: lookup(vpn=0x13c14, asid=0): hit ppn 0x10100a
275497303000: board.processor.switch.core.mmu.itb: translate(vpn=0x13c14, asid=0): 0x10100ac14
275497305000: board.processor.switch.core.mmu.itb: lookup(vpn=0x13c14, asid=0): hit ppn 0x10100a
275497305000: board.processor.switch.core.mmu.itb: translate(vpn=0x13c14, asid=0): 0x10100ac14
275497307000: board.processor.switch.core.mmu.itb: lookup(vpn=0x13c18, asid=0): hit ppn 0x10100a
275497307000: board.processor.switch.core.mmu.itb: translate(vpn=0x13c18, asid=0): 0x10100ac18
275497309000: board.processor.switch.core.mmu.itb: lookup(vpn=0x140ec, asid=0): hit ppn 0x10102e
275497309000: board.processor.switch.core.mmu.itb: translate(vpn=0x140ec, asid=0): 0x10102e0ec
275497363000: board.processor.switch.core.mmu.itb: lookup(vpn=0x140f0, asid=0): hit ppn 0x10102e
275497363000: board.processor.switch.core.mmu.itb: translate(vpn=0x140f0, asid=0): 0x10102e0f0
275497365000: board.processor.switch.core.mmu.itb: lookup(vpn=0x140f4, asid=0): hit ppn 0x10102e
275497365000: board.processor.switch.core.mmu.itb: translate(vpn=0x140f4, asid=0): 0x10102e0f4
275497367000: board.processor.switch.core.mmu.itb: lookup(vpn=0x140f8, asid=0): hit ppn 0x10102e
275497367000: board.processor.switch.core.mmu.itb: translate(vpn=0x140f8, asid=0): 0x10102e0f8
275497369000: board.processor.switch.core.mmu.itb: lookup(vpn=0x140fc, asid=0): hit ppn 0x10102e
275497369000: board.processor.switch.core.mmu.itb: translate(vpn=0x140fc, asid=0): 0x10102e0fc
275497371000: board.processor.switch.core.mmu.itb: lookup(vpn=0x140fc, asid=0): hit ppn 0x10102e
275497371000: board.processor.switch.core.mmu.itb: translate(vpn=0x140fc, asid=0): 0x10102e0fc
275497373000: board.processor.switch.core.mmu.itb: lookup(vpn=0x14100, asid=0): hit ppn 0x10102e
275497373000: board.processor.switch.core.mmu.itb: translate(vpn=0x14100, asid=0): 0x10102e100
275497427000: board.processor.switch.core.mmu.itb: lookup(vpn=0x14100, asid=0): hit ppn 0x10102e
275497427000: board.processor.switch.core.mmu.itb: translate(vpn=0x14100, asid=0): 0x10102e100
275497429000: board.processor.switch.core.mmu.itb: lookup(vpn=0x14104, asid=0): hit ppn 0x10102e
275497429000: board.processor.switch.core.mmu.itb: translate(vpn=0x14104, asid=0): 0x10102e104
275497431000: board.processor.switch.core.mmu.dtb: lookup(vpn=0x79108, asid=0): hit ppn 0x101069
275497431000: board.processor.switch.core.mmu.dtb: translate(vpn=0x79108, asid=0): 0x101069108
275497433000: board.processor.switch.core.mmu.itb: lookup(vpn=0x14108, asid=0): hit ppn 0x10102e
275497433000: board.processor.switch.core.mmu.itb: translate(vpn=0x14108, asid=0): 0x10102e108
275497435000: board.processor.switch.core.mmu.itb: lookup(vpn=0x1410c, asid=0): hit ppn 0x10102e
275497435000: board.processor.switch.core.mmu.itb: translate(vpn=0x1410c, asid=0): 0x10102e10c
275497437000: board.processor.switch.core.mmu.itb: lookup(vpn=0x1410c, asid=0): hit ppn 0x10102e
275497437000: board.processor.switch.core.mmu.itb: translate(vpn=0x1410c, asid=0): 0x10102e10c
275497439000: board.processor.switch.core.mmu.dtb: lookup(vpn=0x814b8, asid=0): hit ppn 0x10109d
275497439000: board.processor.switch.core.mmu.dtb: translate(vpn=0x814b8, asid=0): 0x10109d4b8
275497441000: board.processor.switch.core.mmu.itb: lookup(vpn=0x14110, asid=0): hit ppn 0x10102e
275497441000: board.processor.switch.core.mmu.itb: translate(vpn=0x14110, asid=0): 0x10102e110
275497443000: board.processor.switch.core.mmu.itb: lookup(vpn=0x14114, asid=0): hit ppn 0x10102e
275497443000: board.processor.switch.core.mmu.itb: translate(vpn=0x14114, asid=0): 0x10102e114
275497445000: board.processor.switch.core.mmu.itb: lookup(vpn=0x14118, asid=0): hit ppn 0x10102e
275497445000: board.processor.switch.core.mmu.itb: translate(vpn=0x14118, asid=0): 0x10102e118
275497447000: board.processor.switch.core.mmu.dtb: lookup(vpn=0x814d8, asid=0): hit ppn 0x10109d
275497447000: board.processor.switch.core.mmu.dtb: translate(vpn=0x814d8, asid=0): 0x10109d4d8
275497501000: board.processor.switch.core.mmu.itb: lookup(vpn=0x14118, asid=0): hit ppn 0x10102e
275497501000: board.processor.switch.core.mmu.itb: translate(vpn=0x14118, asid=0): 0x10102e118
275497503000: board.processor.switch.core.mmu.itb: lookup(vpn=0x1411c, asid=0): hit ppn 0x10102e
275497503000: board.processor.switch.core.mmu.itb: translate(vpn=0x1411c, asid=0): 0x10102e11c
275497505000: board.processor.switch.core.mmu.itb: lookup(vpn=0x1411c, asid=0): hit ppn 0x10102e
275497505000: board.processor.switch.core.mmu.itb: translate(vpn=0x1411c, asid=0): 0x10102e11c
275497507000: board.processor.switch.core.mmu.itb: lookup(vpn=0x14120, asid=0): hit ppn 0x10102e
275497507000: board.processor.switch.core.mmu.itb: translate(vpn=0x14120, asid=0): 0x10102e120
275497509000: board.processor.switch.core.mmu.itb: lookup(vpn=0x114c0, asid=0): miss ppn 0
275497509000: board.processor.switch.core.mmu.itb.walker: Performing table walk for address 0x114c0
275497509000: board.processor.switch.core.mmu.itb.walker: Loading level2 PTE from 0x100ca9000
275497510001: board.processor.switch.core.mmu.itb.walker: Got level2 PTE: 0x40319801
275497510001: board.processor.switch.core.mmu.itb.walker: Loading level1 PTE from 0x100c66000
275497512001: board.processor.switch.core.mmu.itb.walker: Got level1 PTE: 0x4032e401
275497512001: board.processor.switch.core.mmu.itb.walker: Loading level0 PTE from 0x100cb9088
275497514001: board.processor.switch.core.mmu.itb.walker: Got level0 PTE: 0x9e07a85b
275497514001: board.processor.switch.core.mmu.itb: insert(vpn=0x11000, asid=0): ppn=0x2781ea pte=0x9e07a85b size=0x1000
275497514001: board.processor.switch.core.mmu.itb: lookup(vpn=0x114c0, asid=0): hit ppn 0x2781ea
275497597000: board.processor.switch.core.mmu.itb: lookup(vpn=0x114c4, asid=0): hit ppn 0x2781ea
275497597000: board.processor.switch.core.mmu.itb: translate(vpn=0x114c4, asid=0): 0x2781ea4c4
275497599000: board.processor.switch.core.mmu.dtb: lookup(vpn=0x7f560, asid=0): hit ppn 0x101034
275497599000: board.processor.switch.core.mmu.dtb: translate(vpn=0x7f560, asid=0): 0x101034560
275497601000: board.processor.switch.core.mmu.itb: lookup(vpn=0x114c8, asid=0): hit ppn 0x2781ea
275497601000: board.processor.switch.core.mmu.itb: translate(vpn=0x114c8, asid=0): 0x2781ea4c8
275497603000: board.processor.switch.core.mmu.itb: lookup(vpn=0x114c8, asid=0): hit ppn 0x2781ea
275497603000: board.processor.switch.core.mmu.itb: translate(vpn=0x114c8, asid=0): 0x2781ea4c8
275497605000: board.processor.switch.core.mmu.itb: lookup(vpn=0x14120, asid=0): hit ppn 0x10102e
275497605000: board.processor.switch.core.mmu.itb: translate(vpn=0x14120, asid=0): 0x10102e120
275497607000: board.processor.switch.core.mmu.itb: lookup(vpn=0x13f68, asid=0): hit ppn 0x10100a
275497607000: board.processor.switch.core.mmu.itb: translate(vpn=0x13f68, asid=0): 0x10100af68
275497689000: board.processor.switch.core.mmu.dtb: lookup(vpn=0x3fffcbbb80, asid=0): hit ppn 0x101013
275497689000: board.processor.switch.core.mmu.dtb: translate(vpn=0x3fffcbbb80, asid=0): 0x101013b80
275497691000: board.processor.switch.core.mmu.itb: lookup(vpn=0x13f6c, asid=0): hit ppn 0x10100a
275497691000: board.processor.switch.core.mmu.itb: translate(vpn=0x13f6c, asid=0): 0x10100af6c
275497693000: board.processor.switch.core.mmu.dtb: lookup(vpn=0x3fffcbbb78, asid=0): hit ppn 0x101013
275497693000: board.processor.switch.core.mmu.dtb: translate(vpn=0x3fffcbbb78, asid=0): 0x101013b78
275497695000: board.processor.switch.core.mmu.itb: lookup(vpn=0x13f6c, asid=0): hit ppn 0x10100a
275497695000: board.processor.switch.core.mmu.itb: translate(vpn=0x13f6c, asid=0): 0x10100af6c
275497697000: board.processor.switch.core.mmu.dtb: lookup(vpn=0x3fffcbbb70, asid=0): hit ppn 0x101013
275497697000: board.processor.switch.core.mmu.dtb: translate(vpn=0x3fffcbbb70, asid=0): 0x101013b70
275497699000: board.processor.switch.core.mmu.itb: lookup(vpn=0x13f70, asid=0): hit ppn 0x10100a
275497699000: board.processor.switch.core.mmu.itb: translate(vpn=0x13f70, asid=0): 0x10100af70
275497701000: board.processor.switch.core.mmu.dtb: lookup(vpn=0x3fffcbbb68, asid=0): hit ppn 0x101013
275497701000: board.processor.switch.core.mmu.dtb: translate(vpn=0x3fffcbbb68, asid=0): 0x101013b68
275497703000: board.processor.switch.core.mmu.itb: lookup(vpn=0x13f70, asid=0): hit ppn 0x10100a
275497703000: board.processor.switch.core.mmu.itb: translate(vpn=0x13f70, asid=0): 0x10100af70
275497705000: board.processor.switch.core.mmu.dtb: lookup(vpn=0x3fffcbbb60, asid=0): hit ppn 0x101013
275497705000: board.processor.switch.core.mmu.dtb: translate(vpn=0x3fffcbbb60, asid=0): 0x101013b60
275497707000: board.processor.switch.core.mmu.itb: lookup(vpn=0x13f74, asid=0): hit ppn 0x10100a
275497707000: board.processor.switch.core.mmu.itb: translate(vpn=0x13f74, asid=0): 0x10100af74
275497709000: board.processor.switch.core.mmu.dtb: lookup(vpn=0x3fffcbbb58, asid=0): hit ppn 0x101013
275497709000: board.processor.switch.core.mmu.dtb: translate(vpn=0x3fffcbbb58, asid=0): 0x101013b58
275497711000: board.processor.switch.core.mmu.itb: lookup(vpn=0x13f74, asid=0): hit ppn 0x10100a
275497711000: board.processor.switch.core.mmu.itb: translate(vpn=0x13f74, asid=0): 0x10100af74
275497713000: board.processor.switch.core.mmu.dtb: lookup(vpn=0x3fffcbbb50, asid=0): hit ppn 0x101013
275497713000: board.processor.switch.core.mmu.dtb: translate(vpn=0x3fffcbbb50, asid=0): 0x101013b50
275497715000: board.processor.switch.core.mmu.itb: lookup(vpn=0x13f78, asid=0): hit ppn 0x10100a
275497715000: board.processor.switch.core.mmu.itb: translate(vpn=0x13f78, asid=0): 0x10100af78
275497717000: board.processor.switch.core.mmu.dtb: lookup(vpn=0x3fffcbbb48, asid=0): hit ppn 0x101013
275497717000: board.processor.switch.core.mmu.dtb: translate(vpn=0x3fffcbbb48, asid=0): 0x101013b48
275497719000: board.processor.switch.core.mmu.itb: lookup(vpn=0x13f78, asid=0): hit ppn 0x10100a
275497719000: board.processor.switch.core.mmu.itb: translate(vpn=0x13f78, asid=0): 0x10100af78
275497721000: board.processor.switch.core.mmu.dtb: lookup(vpn=0x3fffcbbb40, asid=0): hit ppn 0x101013
275497721000: board.processor.switch.core.mmu.dtb: translate(vpn=0x3fffcbbb40, asid=0): 0x101013b40
275497723000: board.processor.switch.core.mmu.itb: lookup(vpn=0x13f7c, asid=0): hit ppn 0x10100a
275497723000: board.processor.switch.core.mmu.itb: translate(vpn=0x13f7c, asid=0): 0x10100af7c
275497725000: board.processor.switch.core.mmu.dtb: lookup(vpn=0x3fffcbbb38, asid=0): hit ppn 0x101013
275497725000: board.processor.switch.core.mmu.dtb: translate(vpn=0x3fffcbbb38, asid=0): 0x101013b38
275497727000: board.processor.switch.core.mmu.itb: lookup(vpn=0x13f7c, asid=0): hit ppn 0x10100a
275497727000: board.processor.switch.core.mmu.itb: translate(vpn=0x13f7c, asid=0): 0x10100af7c
275497729000: board.processor.switch.core.mmu.dtb: lookup(vpn=0x3fffcbbb28, asid=0): hit ppn 0x101013
275497729000: board.processor.switch.core.mmu.dtb: translate(vpn=0x3fffcbbb28, asid=0): 0x101013b28
275497731000: board.processor.switch.core.mmu.itb: lookup(vpn=0x13f80, asid=0): hit ppn 0x10100a
275497731000: board.processor.switch.core.mmu.itb: translate(vpn=0x13f80, asid=0): 0x10100af80
275497785000: board.processor.switch.core.mmu.itb: lookup(vpn=0x138fc, asid=0): hit ppn 0x10100a
275497785000: board.processor.switch.core.mmu.itb: translate(vpn=0x138fc, asid=0): 0x10100a8fc
275497787000: board.processor.switch.core.mmu.dtb: lookup(vpn=0x3fffcbbb88, asid=0): hit ppn 0x101013
275497787000: board.processor.switch.core.mmu.dtb: translate(vpn=0x3fffcbbb88, asid=0): 0x101013b88
275497789000: board.processor.switch.core.mmu.itb: lookup(vpn=0x138fc, asid=0): hit ppn 0x10100a
275497789000: board.processor.switch.core.mmu.itb: translate(vpn=0x138fc, asid=0): 0x10100a8fc
275497791000: board.processor.switch.core.mmu.itb: lookup(vpn=0x13900, asid=0): hit ppn 0x10100a
275497791000: board.processor.switch.core.mmu.itb: translate(vpn=0x13900, asid=0): 0x10100a900
275497845000: board.processor.switch.core.mmu.dtb: lookup(vpn=0x3fffcbbb30, asid=0): hit ppn 0x101013
275497845000: board.processor.switch.core.mmu.dtb: translate(vpn=0x3fffcbbb30, asid=0): 0x101013b30
275497847000: board.processor.switch.core.mmu.itb: lookup(vpn=0x13900, asid=0): hit ppn 0x10100a
275497847000: board.processor.switch.core.mmu.itb: translate(vpn=0x13900, asid=0): 0x10100a900
275497849000: board.processor.switch.core.mmu.itb: lookup(vpn=0x13904, asid=0): hit ppn 0x10100a
275497849000: board.processor.switch.core.mmu.itb: translate(vpn=0x13904, asid=0): 0x10100a904
275497851000: board.processor.switch.core.mmu.itb: lookup(vpn=0x14938, asid=0): hit ppn 0x10102e
275497851000: board.processor.switch.core.mmu.itb: translate(vpn=0x14938, asid=0): 0x10102e938
275497853000: board.processor.switch.core.mmu.itb: lookup(vpn=0x14938, asid=0): hit ppn 0x10102e
275497853000: board.processor.switch.core.mmu.itb: translate(vpn=0x14938, asid=0): 0x10102e938
275497855000: board.processor.switch.core.mmu.itb: lookup(vpn=0x1493c, asid=0): hit ppn 0x10102e
275497855000: board.processor.switch.core.mmu.itb: translate(vpn=0x1493c, asid=0): 0x10102e93c
275497857000: board.processor.switch.core.mmu.dtb: lookup(vpn=0x814b8, asid=0): hit ppn 0x10109d
275497857000: board.processor.switch.core.mmu.dtb: translate(vpn=0x814b8, asid=0): 0x10109d4b8
275497859000: board.processor.switch.core.mmu.itb: lookup(vpn=0x14940, asid=0): hit ppn 0x10102e
275497859000: board.processor.switch.core.mmu.itb: translate(vpn=0x14940, asid=0): 0x10102e940
275497913000: board.processor.switch.core.mmu.itb: lookup(vpn=0x14944, asid=0): hit ppn 0x10102e
275497913000: board.processor.switch.core.mmu.itb: translate(vpn=0x14944, asid=0): 0x10102e944
275497915000: board.processor.switch.core.mmu.itb: lookup(vpn=0x14944, asid=0): hit ppn 0x10102e
275497915000: board.processor.switch.core.mmu.itb: translate(vpn=0x14944, asid=0): 0x10102e944
275497917000: board.processor.switch.core.mmu.itb: lookup(vpn=0x14948, asid=0): hit ppn 0x10102e
275497917000: board.processor.switch.core.mmu.itb: translate(vpn=0x14948, asid=0): 0x10102e948
275497919000: board.processor.switch.core.mmu.itb: lookup(vpn=0x148a0, asid=0): hit ppn 0x10102e
275497919000: board.processor.switch.core.mmu.itb: translate(vpn=0x148a0, asid=0): 0x10102e8a0
275497973000: board.processor.switch.core.mmu.dtb: lookup(vpn=0x3fffcbbba8, asid=0): hit ppn 0x101013
275497973000: board.processor.switch.core.mmu.dtb: translate(vpn=0x3fffcbbba8, asid=0): 0x101013ba8
275497975000: board.processor.switch.core.mmu.itb: lookup(vpn=0x148a4, asid=0): hit ppn 0x10102e
275497975000: board.processor.switch.core.mmu.itb: translate(vpn=0x148a4, asid=0): 0x10102e8a4
275497977000: board.processor.switch.core.mmu.itb: lookup(vpn=0x148a4, asid=0): hit ppn 0x10102e
275497977000: board.processor.switch.core.mmu.itb: translate(vpn=0x148a4, asid=0): 0x10102e8a4
275497979000: board.processor.switch.core.mmu.dtb: lookup(vpn=0x3fffcbbba0, asid=0): hit ppn 0x101013
275497979000: board.processor.switch.core.mmu.dtb: translate(vpn=0x3fffcbbba0, asid=0): 0x101013ba0
275497981000: board.processor.switch.core.mmu.itb: lookup(vpn=0x148a8, asid=0): hit ppn 0x10102e
275497981000: board.processor.switch.core.mmu.itb: translate(vpn=0x148a8, asid=0): 0x10102e8a8
275497983000: board.processor.switch.core.mmu.dtb: lookup(vpn=0x3fffcbbb90, asid=0): hit ppn 0x101013
275497983000: board.processor.switch.core.mmu.dtb: translate(vpn=0x3fffcbbb90, asid=0): 0x101013b90
275497985000: board.processor.switch.core.mmu.itb: lookup(vpn=0x148a8, asid=0): hit ppn 0x10102e
275497985000: board.processor.switch.core.mmu.itb: translate(vpn=0x148a8, asid=0): 0x10102e8a8
275497987000: board.processor.switch.core.mmu.dtb: lookup(vpn=0x3fffcbbb98, asid=0): hit ppn 0x101013
275497987000: board.processor.switch.core.mmu.dtb: translate(vpn=0x3fffcbbb98, asid=0): 0x101013b98
275497989000: board.processor.switch.core.mmu.itb: lookup(vpn=0x148ac, asid=0): hit ppn 0x10102e
275497989000: board.processor.switch.core.mmu.itb: translate(vpn=0x148ac, asid=0): 0x10102e8ac
275497991000: board.processor.switch.core.mmu.itb: lookup(vpn=0x148ac, asid=0): hit ppn 0x10102e
275497991000: board.processor.switch.core.mmu.itb: translate(vpn=0x148ac, asid=0): 0x10102e8ac
275497993000: board.processor.switch.core.mmu.itb: lookup(vpn=0x10510, asid=0): hit ppn 0x101011
275497993000: board.processor.switch.core.mmu.itb: translate(vpn=0x10510, asid=0): 0x101011510
275497995000: board.processor.switch.core.mmu.itb: lookup(vpn=0x10514, asid=0): hit ppn 0x101011
275497995000: board.processor.switch.core.mmu.itb: translate(vpn=0x10514, asid=0): 0x101011514
275497997000: board.processor.switch.core.mmu.dtb: lookup(vpn=0x3fffcbbbb8, asid=0): hit ppn 0x101013
275497997000: board.processor.switch.core.mmu.dtb: translate(vpn=0x3fffcbbbb8, asid=0): 0x101013bb8
275497999000: board.processor.switch.core.mmu.itb: lookup(vpn=0x10518, asid=0): hit ppn 0x101011
275497999000: board.processor.switch.core.mmu.itb: translate(vpn=0x10518, asid=0): 0x101011518
275498001000: board.processor.switch.core.mmu.itb: lookup(vpn=0x10518, asid=0): hit ppn 0x101011
275498001000: board.processor.switch.core.mmu.itb: translate(vpn=0x10518, asid=0): 0x101011518
275498003000: board.processor.switch.core.mmu.itb: lookup(vpn=0x1051c, asid=0): hit ppn 0x101011
275498003000: board.processor.switch.core.mmu.itb: translate(vpn=0x1051c, asid=0): 0x10101151c
275498005000: board.processor.switch.core.mmu.itb: lookup(vpn=0x10520, asid=0): hit ppn 0x101011
275498005000: board.processor.switch.core.mmu.itb: translate(vpn=0x10520, asid=0): 0x101011520
275498007000: board.processor.switch.core.mmu.itb: lookup(vpn=0x10520, asid=0): hit ppn 0x101011
275498007000: board.processor.switch.core.mmu.itb: translate(vpn=0x10520, asid=0): 0x101011520
275498009000: board.processor.switch.core.mmu.itb: lookup(vpn=0x10524, asid=0): hit ppn 0x101011
275498009000: board.processor.switch.core.mmu.itb: translate(vpn=0x10524, asid=0): 0x101011524
275498011000: board.processor.switch.core.mmu.itb: lookup(vpn=0x10524, asid=0): hit ppn 0x101011
275498011000: board.processor.switch.core.mmu.itb: translate(vpn=0x10524, asid=0): 0x101011524
275498013000: board.processor.switch.core.mmu.itb: lookup(vpn=0x10528, asid=0): hit ppn 0x101011
275498013000: board.processor.switch.core.mmu.itb: translate(vpn=0x10528, asid=0): 0x101011528
275498015000: board.processor.switch.core.mmu.itb: lookup(vpn=0x16c18, asid=0): miss ppn 0
275498015000: board.processor.switch.core.mmu.itb.walker: Performing table walk for address 0x16c18
275498015000: board.processor.switch.core.mmu.itb.walker: Loading level2 PTE from 0x100ca9000
275498016001: board.processor.switch.core.mmu.itb.walker: Got level2 PTE: 0x40319801
275498016001: board.processor.switch.core.mmu.itb.walker: Loading level1 PTE from 0x100c66000
275498018001: board.processor.switch.core.mmu.itb.walker: Got level1 PTE: 0x4032e401
275498018001: board.processor.switch.core.mmu.itb.walker: Loading level0 PTE from 0x100cb90b0
275498020001: board.processor.switch.core.mmu.itb.walker: Got level0 PTE: 0x4041445b
275498020001: board.processor.switch.core.mmu.itb: insert(vpn=0x16000, asid=0): ppn=0x101051 pte=0x4041445b size=0x1000
275498020001: board.processor.switch.core.mmu.itb: lookup(vpn=0x16c18, asid=0): hit ppn 0x101051
275498103000: board.processor.switch.core.mmu.itb: lookup(vpn=0x16c1c, asid=0): hit ppn 0x101051
275498103000: board.processor.switch.core.mmu.itb: translate(vpn=0x16c1c, asid=0): 0x101051c1c
275498105000: board.processor.switch.core.mmu.itb: lookup(vpn=0x16c20, asid=0): hit ppn 0x101051
275498105000: board.processor.switch.core.mmu.itb: translate(vpn=0x16c20, asid=0): 0x101051c20
275498107000: board.processor.switch.core.mmu.itb: lookup(vpn=0x16c24, asid=0): hit ppn 0x101051
275498107000: board.processor.switch.core.mmu.itb: translate(vpn=0x16c24, asid=0): 0x101051c24
275498109000: board.processor.switch.core.mmu.itb: lookup(vpn=0xffffffe0002011a4, asid=0): miss ppn 0
275498109000: board.processor.switch.core.mmu.itb.walker: Performing table walk for address 0xffffffe0002011a4
275498109000: board.processor.switch.core.mmu.itb.walker: Loading level2 PTE from 0x100ca9c00
275498190001: board.processor.switch.core.mmu.itb.walker: Got level2 PTE: 0x9ffffc01
275498190001: board.processor.switch.core.mmu.itb.walker: Loading level1 PTE from 0x27ffff008
275498258001: board.processor.switch.core.mmu.itb.walker: Got level1 PTE: 0x201000cb
275498258001: board.processor.switch.core.mmu.itb: insert(vpn=0xffffffe000200000, asid=0): ppn=0x80400 pte=0x201000cb size=0x200000
275498258001: board.processor.switch.core.mmu.itb: lookup(vpn=0xffffffe0002011a4, asid=0): hit ppn 0x80400
275498327000: board.processor.switch.core.mmu.itb: lookup(vpn=0xffffffe0002011a8, asid=0): hit ppn 0x80400
275498327000: board.processor.switch.core.mmu.itb: translate(vpn=0xffffffe0002011a8, asid=0): 0x804011a8
275498329000: board.processor.switch.core.mmu.itb: lookup(vpn=0xffffffe0002011b4, asid=0): hit ppn 0x80400
275498329000: board.processor.switch.core.mmu.itb: translate(vpn=0xffffffe0002011b4, asid=0): 0x804011b4
275498331000: board.processor.switch.core.mmu.dtb: lookup(vpn=0xffffffe080a86898, asid=0): miss ppn 0
275498331000: board.processor.switch.core.mmu.dtb.walker: Performing table walk for address 0xffffffe080a86898
275498331000: board.processor.switch.core.mmu.dtb.walker: Loading level2 PTE from 0x100ca9c10
275498332001: board.processor.switch.core.mmu.dtb.walker: Got level2 PTE: 0x9ffff401
275498332001: board.processor.switch.core.mmu.dtb.walker: Loading level1 PTE from 0x27fffd028
275498414001: board.processor.switch.core.mmu.dtb.walker: Got level1 PTE: 0x403000c7
275498414001: board.processor.switch.core.mmu.dtb: insert(vpn=0xffffffe080a00000, asid=0): ppn=0x100c00 pte=0x403000c7 size=0x200000
275498414001: board.processor.switch.core.mmu.dtb: lookup(vpn=0xffffffe080a86898, asid=0): hit ppn 0x100c00
275498497000: board.processor.switch.core.mmu.itb: lookup(vpn=0xffffffe0002011b8, asid=0): hit ppn 0x80400
275498497000: board.processor.switch.core.mmu.itb: translate(vpn=0xffffffe0002011b8, asid=0): 0x804011b8
275498499000: board.processor.switch.core.mmu.dtb: lookup(vpn=0xffffffe080a86890, asid=0): hit ppn 0x100c00
275498499000: board.processor.switch.core.mmu.dtb: translate(vpn=0xffffffe080a86890, asid=0): 0x100c86890
275498501000: board.processor.switch.core.mmu.itb: lookup(vpn=0xffffffe0002011bc, asid=0): hit ppn 0x80400
275498501000: board.processor.switch.core.mmu.itb: translate(vpn=0xffffffe0002011bc, asid=0): 0x804011bc
275498503000: board.processor.switch.core.mmu.itb: lookup(vpn=0xffffffe0002011bc, asid=0): hit ppn 0x80400
275498503000: board.processor.switch.core.mmu.itb: translate(vpn=0xffffffe0002011bc, asid=0): 0x804011bc
275498505000: board.processor.switch.core.mmu.dtb: lookup(vpn=0xffffffe080a7bee8, asid=0): hit ppn 0x100c00
275498505000: board.processor.switch.core.mmu.dtb: translate(vpn=0xffffffe080a7bee8, asid=0): 0x100c7bee8
275498573000: board.processor.switch.core.mmu.itb: lookup(vpn=0xffffffe0002011c0, asid=0): hit ppn 0x80400
275498573000: board.processor.switch.core.mmu.itb: translate(vpn=0xffffffe0002011c0, asid=0): 0x804011c0
275498627000: board.processor.switch.core.mmu.dtb: lookup(vpn=0xffffffe080a7bef8, asid=0): hit ppn 0x100c00
[...]
275529824000: board.processor.switch.core.mmu.itb: lookup(vpn=0xffffffe0002012e0, asid=0): hit ppn 0x80400
275529824000: board.processor.switch.core.mmu.itb: translate(vpn=0xffffffe0002012e0, asid=0): 0x804012e0
275529826000: board.processor.switch.core.mmu.itb: lookup(vpn=0xffffffe0002012e4, asid=0): hit ppn 0x80400
275529826000: board.processor.switch.core.mmu.itb: translate(vpn=0xffffffe0002012e4, asid=0): 0x804012e4
275529828000: board.processor.switch.core.mmu.itb: lookup(vpn=0xffffffe0002012e4, asid=0): hit ppn 0x80400
275529828000: board.processor.switch.core.mmu.itb: translate(vpn=0xffffffe0002012e4, asid=0): 0x804012e4
275529830000: board.processor.switch.core.mmu.itb: lookup(vpn=0xffffffe0002012e8, asid=0): hit ppn 0x80400
275529830000: board.processor.switch.core.mmu.itb: translate(vpn=0xffffffe0002012e8, asid=0): 0x804012e8
275529832000: board.processor.switch.core.mmu.itb: lookup(vpn=0xffffffe0002012e8, asid=0): hit ppn 0x80400
275529832000: board.processor.switch.core.mmu.itb: translate(vpn=0xffffffe0002012e8, asid=0): 0x804012e8
275529834000: board.processor.switch.core.mmu.itb: lookup(vpn=0xffffffe0002012ec, asid=0): hit ppn 0x80400
275529834000: board.processor.switch.core.mmu.itb: translate(vpn=0xffffffe0002012ec, asid=0): 0x804012ec
275529836000: board.processor.switch.core.mmu.dtb: lookup(vpn=0xffffffe080a86890, asid=0): hit ppn 0x100c00
275529836000: board.processor.switch.core.mmu.dtb: translate(vpn=0xffffffe080a86890, asid=0): 0x100c86890
275529838000: board.processor.switch.core.mmu.itb: lookup(vpn=0xffffffe0002012ec, asid=0): hit ppn 0x80400
275529838000: board.processor.switch.core.mmu.itb: translate(vpn=0xffffffe0002012ec, asid=0): 0x804012ec
275529840000: board.processor.switch.core.mmu.itb: lookup(vpn=0xffffffe0002012f0, asid=0): hit ppn 0x80400
275529840000: board.processor.switch.core.mmu.itb: translate(vpn=0xffffffe0002012f0, asid=0): 0x804012f0
275529842000: board.processor.switch.core.mmu.itb: lookup(vpn=0xffffffe0002012f0, asid=0): hit ppn 0x80400
275529842000: board.processor.switch.core.mmu.itb: translate(vpn=0xffffffe0002012f0, asid=0): 0x804012f0
275529844000: board.processor.switch.core.mmu.dtb: lookup(vpn=0xffffffe080a7bfe0, asid=0): hit ppn 0x100c00
275529844000: board.processor.switch.core.mmu.dtb: translate(vpn=0xffffffe080a7bfe0, asid=0): 0x100c7bfe0
275529846000: board.processor.switch.core.mmu.itb: lookup(vpn=0xffffffe0002012f4, asid=0): hit ppn 0x80400
275529846000: board.processor.switch.core.mmu.itb: translate(vpn=0xffffffe0002012f4, asid=0): 0x804012f4
275529848000: board.processor.switch.core.mmu.dtb: lookup(vpn=0xffffffe080a7bee0, asid=0): hit ppn 0x100c00
275529848000: board.processor.switch.core.mmu.dtb: translate(vpn=0xffffffe080a7bee0, asid=0): 0x100c7bee0
275529850000: board.processor.switch.core.mmu.itb: lookup(vpn=0xffffffe0002012f4, asid=0): hit ppn 0x80400
275529850000: board.processor.switch.core.mmu.itb: translate(vpn=0xffffffe0002012f4, asid=0): 0x804012f4
275529852000: board.processor.switch.core.mmu.itb: lookup(vpn=0xffffffe0002012f8, asid=0): hit ppn 0x80400
275529852000: board.processor.switch.core.mmu.itb: translate(vpn=0xffffffe0002012f8, asid=0): 0x804012f8
275529854000: board.processor.switch.core.mmu.dtb: lookup(vpn=0xffffffe080a7bee0, asid=0): hit ppn 0x100c00
275529854000: board.processor.switch.core.mmu.dtb: translate(vpn=0xffffffe080a7bee0, asid=0): 0x100c7bee0
275529854000: board.processor.switch.core.mmu.itb: lookup(vpn=0xffffffe0002012f8, asid=0): hit ppn 0x80400
275529854000: board.processor.switch.core.mmu.itb: translate(vpn=0xffffffe0002012f8, asid=0): 0x804012f8
275529856000: board.processor.switch.core.mmu.itb: lookup(vpn=0xffffffe0002012fc, asid=0): hit ppn 0x80400
275529856000: board.processor.switch.core.mmu.itb: translate(vpn=0xffffffe0002012fc, asid=0): 0x804012fc
275529858000: board.processor.switch.core.mmu.itb: lookup(vpn=0xffffffe0002012fc, asid=0): hit ppn 0x80400
275529858000: board.processor.switch.core.mmu.itb: translate(vpn=0xffffffe0002012fc, asid=0): 0x804012fc
275529860000: board.processor.switch.core.mmu.itb: lookup(vpn=0xffffffe000201300, asid=0): hit ppn 0x80400
275529860000: board.processor.switch.core.mmu.itb: translate(vpn=0xffffffe000201300, asid=0): 0x80401300
275529862000: board.processor.switch.core.mmu.itb: lookup(vpn=0xffffffe000201300, asid=0): hit ppn 0x80400
275529862000: board.processor.switch.core.mmu.itb: translate(vpn=0xffffffe000201300, asid=0): 0x80401300
275529864000: board.processor.switch.core.mmu.dtb: lookup(vpn=0xffffffe080a7bee8, asid=0): hit ppn 0x100c00
275529864000: board.processor.switch.core.mmu.dtb: translate(vpn=0xffffffe080a7bee8, asid=0): 0x100c7bee8
275529866000: board.processor.switch.core.mmu.itb: lookup(vpn=0xffffffe000201304, asid=0): hit ppn 0x80400
275529866000: board.processor.switch.core.mmu.itb: translate(vpn=0xffffffe000201304, asid=0): 0x80401304
275529868000: board.processor.switch.core.mmu.dtb: lookup(vpn=0xffffffe080a7bef8, asid=0): hit ppn 0x100c00
275529868000: board.processor.switch.core.mmu.dtb: translate(vpn=0xffffffe080a7bef8, asid=0): 0x100c7bef8
275529870000: board.processor.switch.core.mmu.itb: lookup(vpn=0xffffffe000201304, asid=0): hit ppn 0x80400
275529870000: board.processor.switch.core.mmu.itb: translate(vpn=0xffffffe000201304, asid=0): 0x80401304
275529872000: board.processor.switch.core.mmu.dtb: lookup(vpn=0xffffffe080a7bf00, asid=0): hit ppn 0x100c00
275529872000: board.processor.switch.core.mmu.dtb: translate(vpn=0xffffffe080a7bf00, asid=0): 0x100c7bf00
275529874000: board.processor.switch.core.mmu.itb: lookup(vpn=0xffffffe000201308, asid=0): hit ppn 0x80400
275529874000: board.processor.switch.core.mmu.itb: translate(vpn=0xffffffe000201308, asid=0): 0x80401308
275529876000: board.processor.switch.core.mmu.dtb: lookup(vpn=0xffffffe080a7bf08, asid=0): hit ppn 0x100c00
275529876000: board.processor.switch.core.mmu.dtb: translate(vpn=0xffffffe080a7bf08, asid=0): 0x100c7bf08
275529878000: board.processor.switch.core.mmu.itb: lookup(vpn=0xffffffe000201308, asid=0): hit ppn 0x80400
275529878000: board.processor.switch.core.mmu.itb: translate(vpn=0xffffffe000201308, asid=0): 0x80401308
275529880000: board.processor.switch.core.mmu.dtb: lookup(vpn=0xffffffe080a7bf10, asid=0): hit ppn 0x100c00
275529880000: board.processor.switch.core.mmu.dtb: translate(vpn=0xffffffe080a7bf10, asid=0): 0x100c7bf10
275529882000: board.processor.switch.core.mmu.itb: lookup(vpn=0xffffffe00020130c, asid=0): hit ppn 0x80400
275529882000: board.processor.switch.core.mmu.itb: translate(vpn=0xffffffe00020130c, asid=0): 0x8040130c
275529884000: board.processor.switch.core.mmu.dtb: lookup(vpn=0xffffffe080a7bf18, asid=0): hit ppn 0x100c00
275529884000: board.processor.switch.core.mmu.dtb: translate(vpn=0xffffffe080a7bf18, asid=0): 0x100c7bf18
275529886000: board.processor.switch.core.mmu.itb: lookup(vpn=0xffffffe00020130c, asid=0): hit ppn 0x80400
275529886000: board.processor.switch.core.mmu.itb: translate(vpn=0xffffffe00020130c, asid=0): 0x8040130c
275529888000: board.processor.switch.core.mmu.dtb: lookup(vpn=0xffffffe080a7bf20, asid=0): hit ppn 0x100c00
275529888000: board.processor.switch.core.mmu.dtb: translate(vpn=0xffffffe080a7bf20, asid=0): 0x100c7bf20
275529890000: board.processor.switch.core.mmu.itb: lookup(vpn=0xffffffe000201310, asid=0): hit ppn 0x80400
275529890000: board.processor.switch.core.mmu.itb: translate(vpn=0xffffffe000201310, asid=0): 0x80401310
275529892000: board.processor.switch.core.mmu.dtb: lookup(vpn=0xffffffe080a7bf28, asid=0): hit ppn 0x100c00
275529892000: board.processor.switch.core.mmu.dtb: translate(vpn=0xffffffe080a7bf28, asid=0): 0x100c7bf28
275529894000: board.processor.switch.core.mmu.itb: lookup(vpn=0xffffffe000201310, asid=0): hit ppn 0x80400
275529894000: board.processor.switch.core.mmu.itb: translate(vpn=0xffffffe000201310, asid=0): 0x80401310
275529896000: board.processor.switch.core.mmu.dtb: lookup(vpn=0xffffffe080a7bf30, asid=0): hit ppn 0x100c00
275529896000: board.processor.switch.core.mmu.dtb: translate(vpn=0xffffffe080a7bf30, asid=0): 0x100c7bf30
275529898000: board.processor.switch.core.mmu.itb: lookup(vpn=0xffffffe000201314, asid=0): hit ppn 0x80400
275529898000: board.processor.switch.core.mmu.itb: translate(vpn=0xffffffe000201314, asid=0): 0x80401314
275529900000: board.processor.switch.core.mmu.dtb: lookup(vpn=0xffffffe080a7bf38, asid=0): hit ppn 0x100c00
275529900000: board.processor.switch.core.mmu.dtb: translate(vpn=0xffffffe080a7bf38, asid=0): 0x100c7bf38
275529902000: board.processor.switch.core.mmu.itb: lookup(vpn=0xffffffe000201314, asid=0): hit ppn 0x80400
275529902000: board.processor.switch.core.mmu.itb: translate(vpn=0xffffffe000201314, asid=0): 0x80401314
275529904000: board.processor.switch.core.mmu.dtb: lookup(vpn=0xffffffe080a7bf40, asid=0): hit ppn 0x100c00
275529904000: board.processor.switch.core.mmu.dtb: translate(vpn=0xffffffe080a7bf40, asid=0): 0x100c7bf40
275529906000: board.processor.switch.core.mmu.itb: lookup(vpn=0xffffffe000201318, asid=0): hit ppn 0x80400
275529906000: board.processor.switch.core.mmu.itb: translate(vpn=0xffffffe000201318, asid=0): 0x80401318
275529908000: board.processor.switch.core.mmu.dtb: lookup(vpn=0xffffffe080a7bf48, asid=0): hit ppn 0x100c00
275529908000: board.processor.switch.core.mmu.dtb: translate(vpn=0xffffffe080a7bf48, asid=0): 0x100c7bf48
275529910000: board.processor.switch.core.mmu.itb: lookup(vpn=0xffffffe000201318, asid=0): hit ppn 0x80400
275529910000: board.processor.switch.core.mmu.itb: translate(vpn=0xffffffe000201318, asid=0): 0x80401318
275529912000: board.processor.switch.core.mmu.dtb: lookup(vpn=0xffffffe080a7bf50, asid=0): hit ppn 0x100c00
275529912000: board.processor.switch.core.mmu.dtb: translate(vpn=0xffffffe080a7bf50, asid=0): 0x100c7bf50
275529914000: board.processor.switch.core.mmu.itb: lookup(vpn=0xffffffe00020131c, asid=0): hit ppn 0x80400
275529914000: board.processor.switch.core.mmu.itb: translate(vpn=0xffffffe00020131c, asid=0): 0x8040131c
275529916000: board.processor.switch.core.mmu.dtb: lookup(vpn=0xffffffe080a7bf58, asid=0): hit ppn 0x100c00
275529916000: board.processor.switch.core.mmu.dtb: translate(vpn=0xffffffe080a7bf58, asid=0): 0x100c7bf58
275529918000: board.processor.switch.core.mmu.itb: lookup(vpn=0xffffffe00020131c, asid=0): hit ppn 0x80400
275529918000: board.processor.switch.core.mmu.itb: translate(vpn=0xffffffe00020131c, asid=0): 0x8040131c
275529920000: board.processor.switch.core.mmu.dtb: lookup(vpn=0xffffffe080a7bf60, asid=0): hit ppn 0x100c00
275529920000: board.processor.switch.core.mmu.dtb: translate(vpn=0xffffffe080a7bf60, asid=0): 0x100c7bf60
275529922000: board.processor.switch.core.mmu.itb: lookup(vpn=0xffffffe000201320, asid=0): hit ppn 0x80400
275529922000: board.processor.switch.core.mmu.itb: translate(vpn=0xffffffe000201320, asid=0): 0x80401320
275529924000: board.processor.switch.core.mmu.dtb: lookup(vpn=0xffffffe080a7bf68, asid=0): hit ppn 0x100c00
275529924000: board.processor.switch.core.mmu.dtb: translate(vpn=0xffffffe080a7bf68, asid=0): 0x100c7bf68
275529926000: board.processor.switch.core.mmu.itb: lookup(vpn=0xffffffe000201320, asid=0): hit ppn 0x80400
275529926000: board.processor.switch.core.mmu.itb: translate(vpn=0xffffffe000201320, asid=0): 0x80401320
275529928000: board.processor.switch.core.mmu.dtb: lookup(vpn=0xffffffe080a7bf70, asid=0): hit ppn 0x100c00
275529928000: board.processor.switch.core.mmu.dtb: translate(vpn=0xffffffe080a7bf70, asid=0): 0x100c7bf70
275529930000: board.processor.switch.core.mmu.itb: lookup(vpn=0xffffffe000201324, asid=0): hit ppn 0x80400
275529930000: board.processor.switch.core.mmu.itb: translate(vpn=0xffffffe000201324, asid=0): 0x80401324
275529932000: board.processor.switch.core.mmu.dtb: lookup(vpn=0xffffffe080a7bf78, asid=0): hit ppn 0x100c00
275529932000: board.processor.switch.core.mmu.dtb: translate(vpn=0xffffffe080a7bf78, asid=0): 0x100c7bf78
275529934000: board.processor.switch.core.mmu.itb: lookup(vpn=0xffffffe000201324, asid=0): hit ppn 0x80400
275529934000: board.processor.switch.core.mmu.itb: translate(vpn=0xffffffe000201324, asid=0): 0x80401324
275529936000: board.processor.switch.core.mmu.dtb: lookup(vpn=0xffffffe080a7bf80, asid=0): hit ppn 0x100c00
275529936000: board.processor.switch.core.mmu.dtb: translate(vpn=0xffffffe080a7bf80, asid=0): 0x100c7bf80
275529938000: board.processor.switch.core.mmu.itb: lookup(vpn=0xffffffe000201328, asid=0): hit ppn 0x80400
275529938000: board.processor.switch.core.mmu.itb: translate(vpn=0xffffffe000201328, asid=0): 0x80401328
275529940000: board.processor.switch.core.mmu.dtb: lookup(vpn=0xffffffe080a7bf88, asid=0): hit ppn 0x100c00
275529940000: board.processor.switch.core.mmu.dtb: translate(vpn=0xffffffe080a7bf88, asid=0): 0x100c7bf88
275529942000: board.processor.switch.core.mmu.itb: lookup(vpn=0xffffffe000201328, asid=0): hit ppn 0x80400
275529942000: board.processor.switch.core.mmu.itb: translate(vpn=0xffffffe000201328, asid=0): 0x80401328
275529944000: board.processor.switch.core.mmu.dtb: lookup(vpn=0xffffffe080a7bf90, asid=0): hit ppn 0x100c00
275529944000: board.processor.switch.core.mmu.dtb: translate(vpn=0xffffffe080a7bf90, asid=0): 0x100c7bf90
275529946000: board.processor.switch.core.mmu.itb: lookup(vpn=0xffffffe00020132c, asid=0): hit ppn 0x80400
275529946000: board.processor.switch.core.mmu.itb: translate(vpn=0xffffffe00020132c, asid=0): 0x8040132c
275529948000: board.processor.switch.core.mmu.dtb: lookup(vpn=0xffffffe080a7bf98, asid=0): hit ppn 0x100c00
275529948000: board.processor.switch.core.mmu.dtb: translate(vpn=0xffffffe080a7bf98, asid=0): 0x100c7bf98
275529950000: board.processor.switch.core.mmu.itb: lookup(vpn=0xffffffe00020132c, asid=0): hit ppn 0x80400
275529950000: board.processor.switch.core.mmu.itb: translate(vpn=0xffffffe00020132c, asid=0): 0x8040132c
275529952000: board.processor.switch.core.mmu.dtb: lookup(vpn=0xffffffe080a7bfa0, asid=0): hit ppn 0x100c00
275529952000: board.processor.switch.core.mmu.dtb: translate(vpn=0xffffffe080a7bfa0, asid=0): 0x100c7bfa0
275529954000: board.processor.switch.core.mmu.itb: lookup(vpn=0xffffffe000201330, asid=0): hit ppn 0x80400
275529954000: board.processor.switch.core.mmu.itb: translate(vpn=0xffffffe000201330, asid=0): 0x80401330
275529956000: board.processor.switch.core.mmu.dtb: lookup(vpn=0xffffffe080a7bfa8, asid=0): hit ppn 0x100c00
275529956000: board.processor.switch.core.mmu.dtb: translate(vpn=0xffffffe080a7bfa8, asid=0): 0x100c7bfa8
275529958000: board.processor.switch.core.mmu.itb: lookup(vpn=0xffffffe000201330, asid=0): hit ppn 0x80400
275529958000: board.processor.switch.core.mmu.itb: translate(vpn=0xffffffe000201330, asid=0): 0x80401330
275529960000: board.processor.switch.core.mmu.dtb: lookup(vpn=0xffffffe080a7bfb0, asid=0): hit ppn 0x100c00
275529960000: board.processor.switch.core.mmu.dtb: translate(vpn=0xffffffe080a7bfb0, asid=0): 0x100c7bfb0
275529962000: board.processor.switch.core.mmu.itb: lookup(vpn=0xffffffe000201334, asid=0): hit ppn 0x80400
275529962000: board.processor.switch.core.mmu.itb: translate(vpn=0xffffffe000201334, asid=0): 0x80401334
275529964000: board.processor.switch.core.mmu.dtb: lookup(vpn=0xffffffe080a7bfb8, asid=0): hit ppn 0x100c00
275529964000: board.processor.switch.core.mmu.dtb: translate(vpn=0xffffffe080a7bfb8, asid=0): 0x100c7bfb8
275529966000: board.processor.switch.core.mmu.itb: lookup(vpn=0xffffffe000201334, asid=0): hit ppn 0x80400
275529966000: board.processor.switch.core.mmu.itb: translate(vpn=0xffffffe000201334, asid=0): 0x80401334
275529968000: board.processor.switch.core.mmu.dtb: lookup(vpn=0xffffffe080a7bfc0, asid=0): hit ppn 0x100c00
275529968000: board.processor.switch.core.mmu.dtb: translate(vpn=0xffffffe080a7bfc0, asid=0): 0x100c7bfc0
275529970000: board.processor.switch.core.mmu.itb: lookup(vpn=0xffffffe000201338, asid=0): hit ppn 0x80400
275529970000: board.processor.switch.core.mmu.itb: translate(vpn=0xffffffe000201338, asid=0): 0x80401338
275529972000: board.processor.switch.core.mmu.dtb: lookup(vpn=0xffffffe080a7bfc8, asid=0): hit ppn 0x100c00
275529972000: board.processor.switch.core.mmu.dtb: translate(vpn=0xffffffe080a7bfc8, asid=0): 0x100c7bfc8
275529974000: board.processor.switch.core.mmu.itb: lookup(vpn=0xffffffe000201338, asid=0): hit ppn 0x80400
275529974000: board.processor.switch.core.mmu.itb: translate(vpn=0xffffffe000201338, asid=0): 0x80401338
275529976000: board.processor.switch.core.mmu.dtb: lookup(vpn=0xffffffe080a7bfd0, asid=0): hit ppn 0x100c00
275529976000: board.processor.switch.core.mmu.dtb: translate(vpn=0xffffffe080a7bfd0, asid=0): 0x100c7bfd0
275529978000: board.processor.switch.core.mmu.itb: lookup(vpn=0xffffffe00020133c, asid=0): hit ppn 0x80400
275529978000: board.processor.switch.core.mmu.itb: translate(vpn=0xffffffe00020133c, asid=0): 0x8040133c
275529980000: board.processor.switch.core.mmu.dtb: lookup(vpn=0xffffffe080a7bfd8, asid=0): hit ppn 0x100c00
275529980000: board.processor.switch.core.mmu.dtb: translate(vpn=0xffffffe080a7bfd8, asid=0): 0x100c7bfd8
275529982000: board.processor.switch.core.mmu.itb: lookup(vpn=0xffffffe00020133c, asid=0): hit ppn 0x80400
275529982000: board.processor.switch.core.mmu.itb: translate(vpn=0xffffffe00020133c, asid=0): 0x8040133c
275529984000: board.processor.switch.core.mmu.dtb: lookup(vpn=0xffffffe080a7bef0, asid=0): hit ppn 0x100c00
275529984000: board.processor.switch.core.mmu.dtb: translate(vpn=0xffffffe080a7bef0, asid=0): 0x100c7bef0
275529986000: board.processor.switch.core.mmu.itb: lookup(vpn=0xffffffe000201340, asid=0): hit ppn 0x80400
275529986000: board.processor.switch.core.mmu.itb: translate(vpn=0xffffffe000201340, asid=0): 0x80401340
275529988000: board.processor.switch.core.mmu.itb: lookup(vpn=0x10538, asid=0): hit ppn 0x101011
275529988000: board.processor.switch.core.mmu.itb: translate(vpn=0x10538, asid=0): 0x101011538
275529990000: board.processor.switch.core.mmu.itb: lookup(vpn=0x1053c, asid=0): hit ppn 0x101011
275529990000: board.processor.switch.core.mmu.itb: translate(vpn=0x1053c, asid=0): 0x10101153c
275529992000: board.processor.switch.core.mmu.dtb: lookup(vpn=0x3fbdb17000, asid=0): miss ppn 0
275529992000: board.processor.switch.core.mmu.dtb.walker: Performing table walk for address 0x3fbdb17000
275529992000: board.processor.switch.core.mmu.dtb.walker: Loading level2 PTE from 0x100ca97f0
275529993001: board.processor.switch.core.mmu.dtb.walker: Got level2 PTE: 0x4031cc01
275529993001: board.processor.switch.core.mmu.dtb.walker: Loading level1 PTE from 0x100c73f68
275529995001: board.processor.switch.core.mmu.dtb.walker: Got level1 PTE: 0x4032a801
275529995001: board.processor.switch.core.mmu.dtb.walker: Loading level0 PTE from 0x100caa8b8
275529997001: board.processor.switch.core.mmu.dtb.walker: Got level0 PTE: 0x404298d7
275529997001: board.processor.switch.core.mmu.dtb: insert(vpn=0x3fbdb17000, asid=0): ppn=0x1010a6 pte=0x404298d7 size=0x1000
275529997001: board.processor.switch.core.mmu.dtb: lookup(vpn=0x3fbdb17000, asid=0): hit ppn 0x1010a6
275530000000: board.processor.switch.core.mmu.itb: lookup(vpn=0x1053c, asid=0): hit ppn 0x101011
275530000000: board.processor.switch.core.mmu.itb: translate(vpn=0x1053c, asid=0): 0x10101153c
275530002000: board.processor.switch.core.mmu.itb: lookup(vpn=0x10540, asid=0): hit ppn 0x101011
275530002000: board.processor.switch.core.mmu.itb: translate(vpn=0x10540, asid=0): 0x101011540
275530070000: board.processor.switch.core.mmu.itb: lookup(vpn=0x10578, asid=0): hit ppn 0x101011
275530070000: board.processor.switch.core.mmu.itb: translate(vpn=0x10578, asid=0): 0x101011578
275530072000: board.processor.switch.core.mmu.itb: lookup(vpn=0x1057c, asid=0): hit ppn 0x101011
275530072000: board.processor.switch.core.mmu.itb: translate(vpn=0x1057c, asid=0): 0x10101157c
275530074000: board.processor.switch.core.mmu.itb: lookup(vpn=0x1057c, asid=0): hit ppn 0x101011
275530074000: board.processor.switch.core.mmu.itb: translate(vpn=0x1057c, asid=0): 0x10101157c
