Global frequency set at 1000000000000 ticks per second
      0: system.platform.rtc: Real-time clock set to Sun Jan  1 00:00:00 2012
gem5 Simulator System.  https://www.gem5.org
gem5 is copyrighted software; use the --copyright option for details.

gem5 version 23.1.0.0
gem5 compiled Mar 25 2024 14:54:43
gem5 started Mar 25 2024 22:57:14
gem5 executing on francio-ThinkPad-P15v-Gen-1, pid 15552
command line: ./gem5/build/RISCV/gem5.opt --debug-flags=MMU,TLB,TLBVerbose,PageTableWalker gem5/configs/example/riscv/fs_linux.py --kernel /home/francio/Documents/gem5/tests/test-progs/binaries/riscv-bootloader-vmlinux-5.10 --disk-image /home/francio/Documents/gem5/tests/test-progs/disks/riscv-disk-img --restore-with-cpu RiscvTimingSimpleCPU --checkpoint-dir m5out/ -r 1

Switch at curTick count:10000
621350950500: system.cpu.mmu.itb: lookup(vpn=0x105c0, asid=0): hit ppn 0x9b77f
621350950500: system.cpu.mmu.itb: translate(vpn=0x105c0, asid=0): 0x9b77f5c0
621351027000: system.cpu.mmu.itb: flushAll()
621351027000: system.cpu.mmu.itb: remove(vpn=0x16000, asid=0): ppn=0x9b644 pte=0x26d9105b size=0x1000
621351027000: system.cpu.mmu.itb: remove(vpn=0x28000, asid=0): ppn=0x9b636 pte=0x26d8d85b size=0x1000
621351027000: system.cpu.mmu.itb: remove(vpn=0x18000, asid=0): ppn=0x9b648 pte=0x26d9205b size=0x1000
621351027000: system.cpu.mmu.itb: remove(vpn=0x23000, asid=0): ppn=0x9b633 pte=0x26d8cc5b size=0x1000
621351027000: system.cpu.mmu.itb: remove(vpn=0x22000, asid=0): ppn=0x9b645 pte=0x26d9145b size=0x1000
621351027000: system.cpu.mmu.itb: remove(vpn=0xffffffe000600000, asid=0): ppn=0x80800 pte=0x202000cb size=0x200000
621351027000: system.cpu.mmu.itb: remove(vpn=0xffffffe000400000, asid=0): ppn=0x80600 pte=0x201800cb size=0x200000
621351027000: system.cpu.mmu.itb: remove(vpn=0x3c000, asid=0): ppn=0x9b67f pte=0x26d9fc5b size=0x1000
621351027000: system.cpu.mmu.itb: remove(vpn=0x10000, asid=0): ppn=0x9b77f pte=0x26ddfc5b size=0x1000
621351027000: system.cpu.mmu.itb: remove(vpn=0x4b000, asid=0): ppn=0x9b659 pte=0x26d9645b size=0x1000
621351027000: system.cpu.mmu.itb: remove(vpn=0x4a000, asid=0): ppn=0x9b658 pte=0x26d9605b size=0x1000
621351027000: system.cpu.mmu.itb: remove(vpn=0x14000, asid=0): ppn=0x9b632 pte=0x26d8c85b size=0x1000
621351027000: system.cpu.mmu.itb: remove(vpn=0xffffffe000200000, asid=0): ppn=0x80400 pte=0x201000cb size=0x200000
621351027000: system.cpu.mmu.itb: remove(vpn=0x13000, asid=0): ppn=0x9b603 pte=0x26d80c5b size=0x1000
621351027000: system.cpu.mmu.itb: remove(vpn=0x11000, asid=0): ppn=0x811e1 pte=0x2047845b size=0x1000
621351027000: system.cpu.mmu.itb: remove(vpn=0x17000, asid=0): ppn=0x9b630 pte=0x26d8c05b size=0x1000
621351027000: system.cpu.mmu.dtb: flushAll()
621351027000: system.cpu.mmu.dtb: remove(vpn=0x71000, asid=0): ppn=0x811e8 pte=0x2047a05b size=0x1000
621351027000: system.cpu.mmu.dtb: remove(vpn=0x72000, asid=0): ppn=0x811fe pte=0x2047f85b size=0x1000
621351027000: system.cpu.mmu.dtb: remove(vpn=0x73000, asid=0): ppn=0x9b778 pte=0x26dde05b size=0x1000
621351027000: system.cpu.mmu.dtb: remove(vpn=0x74000, asid=0): ppn=0x81103 pte=0x20440c5b size=0x1000
621351027000: system.cpu.mmu.dtb: remove(vpn=0x80000, asid=0): ppn=0x9b671 pte=0x26d9c4d7 size=0x1000
621351027000: system.cpu.mmu.dtb: remove(vpn=0x81000, asid=0): ppn=0x9b687 pte=0x26da1cd7 size=0x1000
621351027000: system.cpu.mmu.dtb: remove(vpn=0x78000, asid=0): ppn=0x9b688 pte=0x26da20d3 size=0x1000
621351027000: system.cpu.mmu.dtb: remove(vpn=0x70000, asid=0): ppn=0x9b608 pte=0x26d8205b size=0x1000
621351027000: system.cpu.mmu.dtb: remove(vpn=0x6f000, asid=0): ppn=0x9b77b pte=0x26ddec5b size=0x1000
621351027000: system.cpu.mmu.dtb: remove(vpn=0xffffffe001c00000, asid=0): ppn=0x81e00 pte=0x207800c7 size=0x200000
621351027000: system.cpu.mmu.dtb: remove(vpn=0xffffffe000c00000, asid=0): ppn=0x80e00 pte=0x203800c7 size=0x200000
621351027000: system.cpu.mmu.dtb: remove(vpn=0xffffffe000000000, asid=0): ppn=0x80200 pte=0x200800cf size=0x200000
621351027000: system.cpu.mmu.dtb: remove(vpn=0x3fffe94000, asid=0): ppn=0x811eb pte=0x2047acd7 size=0x1000
621351027000: system.cpu.mmu.dtb: remove(vpn=0xffffffe000800000, asid=0): ppn=0x80a00 pte=0x202800c3 size=0x200000
621351027000: system.cpu.mmu.dtb: remove(vpn=0xffffffe01b600000, asid=0): ppn=0x9b800 pte=0x26e000c7 size=0x200000
621351027000: system.cpu.mmu.dtb: remove(vpn=0xffffffe001600000, asid=0): ppn=0x81800 pte=0x206000c7 size=0x200000
621351027000: system.cpu.mmu.dtb: remove(vpn=0xffffffe01fc00000, asid=0): ppn=0x9fe00 pte=0x27f800c7 size=0x200000
621351027000: system.cpu.mmu.dtb: remove(vpn=0xffffffe01f600000, asid=0): ppn=0x9f800 pte=0x27e000c7 size=0x200000
621351027000: system.cpu.mmu.dtb: remove(vpn=0xffffffe000a00000, asid=0): ppn=0x80c00 pte=0x203000c3 size=0x200000
621351027000: system.cpu.mmu.dtb: remove(vpn=0x7a000, asid=0): ppn=0x811ea pte=0x2047a8d7 size=0x1000
621351027000: system.cpu.mmu.dtb: remove(vpn=0x7b000, asid=0): ppn=0x9b650 pte=0x26d940d7 size=0x1000
621351027000: system.cpu.mmu.dtb: remove(vpn=0x79000, asid=0): ppn=0x9b64f pte=0x26d93cd7 size=0x1000
621351027000: system.cpu.mmu.dtb: remove(vpn=0x7f000, asid=0): ppn=0x9b63a pte=0x26d8e8d7 size=0x1000
621351027000: system.cpu.mmu.dtb: remove(vpn=0x75000, asid=0): ppn=0x9b777 pte=0x26dddc53 size=0x1000
621351027000: system.cpu.mmu.dtb: remove(vpn=0xffffffe001a00000, asid=0): ppn=0x81c00 pte=0x207000c7 size=0x200000
621351027000: system.cpu.mmu.dtb: remove(vpn=0xffffffe01b400000, asid=0): ppn=0x9b600 pte=0x26d800c7 size=0x200000
621351027000: system.cpu.mmu.dtb: remove(vpn=0xffffffe001200000, asid=0): ppn=0x81400 pte=0x205000c7 size=0x200000
621351027000: system.cpu.mmu.dtb: remove(vpn=0xffffffe001400000, asid=0): ppn=0x81600 pte=0x205800c7 size=0x200000
621351027000: system.cpu.mmu.dtb: remove(vpn=0xffffffd004001000, asid=0): ppn=0x10008 pte=0x40020c7 size=0x1000
621351027000: system.cpu.mmu.dtb: remove(vpn=0xffffffd000201000, asid=0): ppn=0xc201 pte=0x30804c7 size=0x1000
621351027000: system.cpu.mmu.dtb: remove(vpn=0x67000, asid=0): ppn=0x9b68d pte=0x26da345b size=0x1000
621351027000: system.cpu.mmu.dtb: remove(vpn=0x68000, asid=0): ppn=0x9b68e pte=0x26da385b size=0x1000
621351027000: system.cpu.mmu.dtb: remove(vpn=0x69000, asid=0): ppn=0x9b68f pte=0x26da3c5b size=0x1000
621351027000: system.cpu.mmu.dtb: remove(vpn=0x6a000, asid=0): ppn=0x811c3 pte=0x20470c5b size=0x1000
621351027000: system.cpu.mmu.dtb: remove(vpn=0x6b000, asid=0): ppn=0x811ec pte=0x2047b05b size=0x1000
621351027000: system.cpu.mmu.dtb: remove(vpn=0x6c000, asid=0): ppn=0x811e3 pte=0x20478c5b size=0x1000
621351027000: system.cpu.mmu.dtb: remove(vpn=0x6d000, asid=0): ppn=0x9b613 pte=0x26d84c5b size=0x1000
621351027000: system.cpu.mmu.dtb: remove(vpn=0x6e000, asid=0): ppn=0x9b600 pte=0x26d8005b size=0x1000
Switched CPUS @ tick 621350960000
switching cpus
**** REAL SIMULATION ****
621351027500: system.switch_cpus.mmu.itb: lookup(vpn=0x10510, asid=0): miss ppn 0
621351027500: system.switch_cpus.mmu.itb.walker: Performing table walk for address 0x10510
621351027500: system.switch_cpus.mmu.itb.walker: Loading level2 PTE from 0x81e57000
621351027500: system.switch_cpus.mmu.itb.walker: Got level2 PTE: 0x20794001
621351027500: system.switch_cpus.mmu.itb.walker: Loading level1 PTE from 0x81e50000
621351027500: system.switch_cpus.mmu.itb.walker: Got level1 PTE: 0x2079ec01
621351027500: system.switch_cpus.mmu.itb.walker: Loading level0 PTE from 0x81e7b080
621351027500: system.switch_cpus.mmu.itb.walker: Got level0 PTE: 0x26ddfc5b
621351027500: system.switch_cpus.mmu.itb: insert(vpn=0x10000, asid=0): ppn=0x9b77f pte=0x26ddfc5b size=0x1000
621351027500: system.switch_cpus.mmu.itb: translate(vpn=0x10510, asid=0): 0x9b77f510
621351028000: system.switch_cpus.mmu.itb: lookup(vpn=0x10510, asid=0): hit ppn 0x9b77f
621351028000: system.switch_cpus.mmu.itb: translate(vpn=0x10510, asid=0): 0x9b77f510
621351028500: system.switch_cpus.mmu.itb: lookup(vpn=0x10514, asid=0): hit ppn 0x9b77f
621351028500: system.switch_cpus.mmu.itb: translate(vpn=0x10514, asid=0): 0x9b77f514
621351029000: system.switch_cpus.mmu.itb: lookup(vpn=0x105ac, asid=0): hit ppn 0x9b77f
621351029000: system.switch_cpus.mmu.itb: translate(vpn=0x105ac, asid=0): 0x9b77f5ac
621351029500: system.switch_cpus.mmu.itb: lookup(vpn=0x105b0, asid=0): hit ppn 0x9b77f
621351029500: system.switch_cpus.mmu.itb: translate(vpn=0x105b0, asid=0): 0x9b77f5b0
621351030000: system.switch_cpus.mmu.itb: lookup(vpn=0x10518, asid=0): hit ppn 0x9b77f
621351030000: system.switch_cpus.mmu.itb: translate(vpn=0x10518, asid=0): 0x9b77f518
621351030500: system.switch_cpus.mmu.itb: lookup(vpn=0x10518, asid=0): hit ppn 0x9b77f
621351030500: system.switch_cpus.mmu.itb: translate(vpn=0x10518, asid=0): 0x9b77f518
621351031000: system.switch_cpus.mmu.itb: lookup(vpn=0x1051c, asid=0): hit ppn 0x9b77f
621351031000: system.switch_cpus.mmu.itb: translate(vpn=0x1051c, asid=0): 0x9b77f51c
621351031500: system.switch_cpus.mmu.itb: lookup(vpn=0x147f0, asid=0): miss ppn 0
621351031500: system.switch_cpus.mmu.itb.walker: Performing table walk for address 0x147f0
621351031500: system.switch_cpus.mmu.itb.walker: Loading level2 PTE from 0x81e57000
621351031500: system.switch_cpus.mmu.itb.walker: Got level2 PTE: 0x20794001
621351031500: system.switch_cpus.mmu.itb.walker: Loading level1 PTE from 0x81e50000
621351031500: system.switch_cpus.mmu.itb.walker: Got level1 PTE: 0x2079ec01
621351031500: system.switch_cpus.mmu.itb.walker: Loading level0 PTE from 0x81e7b0a0
621351031500: system.switch_cpus.mmu.itb.walker: Got level0 PTE: 0x26d8c85b
621351031500: system.switch_cpus.mmu.itb: insert(vpn=0x14000, asid=0): ppn=0x9b632 pte=0x26d8c85b size=0x1000
621351031500: system.switch_cpus.mmu.itb: translate(vpn=0x147f0, asid=0): 0x9b6327f0
621351032000: system.switch_cpus.mmu.itb: lookup(vpn=0x147f0, asid=0): hit ppn 0x9b632
621351032000: system.switch_cpus.mmu.itb: translate(vpn=0x147f0, asid=0): 0x9b6327f0
621351032000: system.switch_cpus.mmu.dtb: lookup(vpn=0x3fffe94b58, asid=0): miss ppn 0
621351032000: system.switch_cpus.mmu.dtb.walker: Performing table walk for address 0x3fffe94b58
621351032000: system.switch_cpus.mmu.dtb.walker: Loading level2 PTE from 0x81e577f8
621351032000: system.switch_cpus.mmu.dtb.walker: Got level2 PTE: 0x20083001
621351032000: system.switch_cpus.mmu.dtb.walker: Loading level1 PTE from 0x8020cff8
621351032000: system.switch_cpus.mmu.dtb.walker: Got level1 PTE: 0x20793c01
621351032000: system.switch_cpus.mmu.dtb.walker: Loading level0 PTE from 0x81e4f4a0
621351032000: system.switch_cpus.mmu.dtb.walker: Got level0 PTE: 0x2047acd7
621351032000: system.switch_cpus.mmu.dtb: insert(vpn=0x3fffe94000, asid=0): ppn=0x811eb pte=0x2047acd7 size=0x1000
621351032000: system.switch_cpus.mmu.dtb: translate(vpn=0x3fffe94b58, asid=0): 0x811ebb58
621351032500: system.switch_cpus.mmu.itb: lookup(vpn=0x147f4, asid=0): hit ppn 0x9b632
621351032500: system.switch_cpus.mmu.itb: translate(vpn=0x147f4, asid=0): 0x9b6327f4
621351032500: system.switch_cpus.mmu.dtb: lookup(vpn=0x3fffe94b68, asid=0): hit ppn 0x811eb
621351032500: system.switch_cpus.mmu.dtb: translate(vpn=0x3fffe94b68, asid=0): 0x811ebb68
621351033000: system.switch_cpus.mmu.itb: lookup(vpn=0x147f4, asid=0): hit ppn 0x9b632
621351033000: system.switch_cpus.mmu.itb: translate(vpn=0x147f4, asid=0): 0x9b6327f4
621351033000: system.switch_cpus.mmu.dtb: lookup(vpn=0x3fffe94b60, asid=0): hit ppn 0x811eb
621351033000: system.switch_cpus.mmu.dtb: translate(vpn=0x3fffe94b60, asid=0): 0x811ebb60
621351033500: system.switch_cpus.mmu.itb: lookup(vpn=0x147f8, asid=0): hit ppn 0x9b632
621351033500: system.switch_cpus.mmu.itb: translate(vpn=0x147f8, asid=0): 0x9b6327f8
621351034000: system.switch_cpus.mmu.itb: lookup(vpn=0x147fc, asid=0): hit ppn 0x9b632
621351034000: system.switch_cpus.mmu.itb: translate(vpn=0x147fc, asid=0): 0x9b6327fc
621351034000: system.switch_cpus.mmu.dtb: lookup(vpn=0x7f565, asid=0): miss ppn 0
621351034000: system.switch_cpus.mmu.dtb.walker: Performing table walk for address 0x7f565
621351034000: system.switch_cpus.mmu.dtb.walker: Loading level2 PTE from 0x81e57000
621351034000: system.switch_cpus.mmu.dtb.walker: Got level2 PTE: 0x20794001
621351034000: system.switch_cpus.mmu.dtb.walker: Loading level1 PTE from 0x81e50000
621351034000: system.switch_cpus.mmu.dtb.walker: Got level1 PTE: 0x2079ec01
621351034000: system.switch_cpus.mmu.dtb.walker: Loading level0 PTE from 0x81e7b3f8
621351034000: system.switch_cpus.mmu.dtb.walker: Got level0 PTE: 0x26d8e8d7
621351034000: system.switch_cpus.mmu.dtb: insert(vpn=0x7f000, asid=0): ppn=0x9b63a pte=0x26d8e8d7 size=0x1000
621351034000: system.switch_cpus.mmu.dtb: translate(vpn=0x7f565, asid=0): 0x9b63a565
621351034500: system.switch_cpus.mmu.itb: lookup(vpn=0x14800, asid=0): hit ppn 0x9b632
621351034500: system.switch_cpus.mmu.itb: translate(vpn=0x14800, asid=0): 0x9b632800
621351035000: system.switch_cpus.mmu.itb: lookup(vpn=0x14800, asid=0): hit ppn 0x9b632
621351035000: system.switch_cpus.mmu.itb: translate(vpn=0x14800, asid=0): 0x9b632800
621351035500: system.switch_cpus.mmu.itb: lookup(vpn=0x14804, asid=0): hit ppn 0x9b632
621351035500: system.switch_cpus.mmu.itb: translate(vpn=0x14804, asid=0): 0x9b632804
621351036000: system.switch_cpus.mmu.itb: lookup(vpn=0x14808, asid=0): hit ppn 0x9b632
621351036000: system.switch_cpus.mmu.itb: translate(vpn=0x14808, asid=0): 0x9b632808
621351036000: system.switch_cpus.mmu.dtb: lookup(vpn=0x3fffe94b50, asid=0): hit ppn 0x811eb
621351036000: system.switch_cpus.mmu.dtb: translate(vpn=0x3fffe94b50, asid=0): 0x811ebb50
621351036500: system.switch_cpus.mmu.itb: lookup(vpn=0x14808, asid=0): hit ppn 0x9b632
621351036500: system.switch_cpus.mmu.itb: translate(vpn=0x14808, asid=0): 0x9b632808
621351037000: system.switch_cpus.mmu.itb: lookup(vpn=0x1480c, asid=0): hit ppn 0x9b632
621351037000: system.switch_cpus.mmu.itb: translate(vpn=0x1480c, asid=0): 0x9b63280c
621351037500: system.switch_cpus.mmu.itb: lookup(vpn=0x1480c, asid=0): hit ppn 0x9b632
621351037500: system.switch_cpus.mmu.itb: translate(vpn=0x1480c, asid=0): 0x9b63280c
621351038000: system.switch_cpus.mmu.itb: lookup(vpn=0x14810, asid=0): hit ppn 0x9b632
621351038000: system.switch_cpus.mmu.itb: translate(vpn=0x14810, asid=0): 0x9b632810
621351038500: system.switch_cpus.mmu.itb: lookup(vpn=0x14810, asid=0): hit ppn 0x9b632
621351038500: system.switch_cpus.mmu.itb: translate(vpn=0x14810, asid=0): 0x9b632810
621351039000: system.switch_cpus.mmu.itb: lookup(vpn=0x14814, asid=0): hit ppn 0x9b632
621351039000: system.switch_cpus.mmu.itb: translate(vpn=0x14814, asid=0): 0x9b632814
621351039500: system.switch_cpus.mmu.itb: lookup(vpn=0x1481c, asid=0): hit ppn 0x9b632
621351039500: system.switch_cpus.mmu.itb: translate(vpn=0x1481c, asid=0): 0x9b63281c
621351040000: system.switch_cpus.mmu.itb: lookup(vpn=0x14820, asid=0): hit ppn 0x9b632
621351040000: system.switch_cpus.mmu.itb: translate(vpn=0x14820, asid=0): 0x9b632820
621351040500: system.switch_cpus.mmu.itb: lookup(vpn=0x14820, asid=0): hit ppn 0x9b632
621351040500: system.switch_cpus.mmu.itb: translate(vpn=0x14820, asid=0): 0x9b632820
621351040500: system.switch_cpus.mmu.dtb: lookup(vpn=0x80788, asid=0): miss ppn 0
621351040500: system.switch_cpus.mmu.dtb.walker: Performing table walk for address 0x80788
621351040500: system.switch_cpus.mmu.dtb.walker: Loading level2 PTE from 0x81e57000
621351040500: system.switch_cpus.mmu.dtb.walker: Got level2 PTE: 0x20794001
621351040500: system.switch_cpus.mmu.dtb.walker: Loading level1 PTE from 0x81e50000
621351040500: system.switch_cpus.mmu.dtb.walker: Got level1 PTE: 0x2079ec01
621351040500: system.switch_cpus.mmu.dtb.walker: Loading level0 PTE from 0x81e7b400
621351040500: system.switch_cpus.mmu.dtb.walker: Got level0 PTE: 0x26d9c4d7
621351040500: system.switch_cpus.mmu.dtb: insert(vpn=0x80000, asid=0): ppn=0x9b671 pte=0x26d9c4d7 size=0x1000
621351040500: system.switch_cpus.mmu.dtb: translate(vpn=0x80788, asid=0): 0x9b671788
621351041000: system.switch_cpus.mmu.itb: lookup(vpn=0x14824, asid=0): hit ppn 0x9b632
621351041000: system.switch_cpus.mmu.itb: translate(vpn=0x14824, asid=0): 0x9b632824
621351041500: system.switch_cpus.mmu.itb: lookup(vpn=0x14824, asid=0): hit ppn 0x9b632
621351041500: system.switch_cpus.mmu.itb: translate(vpn=0x14824, asid=0): 0x9b632824
621351042000: system.switch_cpus.mmu.itb: lookup(vpn=0x14828, asid=0): hit ppn 0x9b632
621351042000: system.switch_cpus.mmu.itb: translate(vpn=0x14828, asid=0): 0x9b632828
621351042500: system.switch_cpus.mmu.itb: lookup(vpn=0x14828, asid=0): hit ppn 0x9b632
621351042500: system.switch_cpus.mmu.itb: translate(vpn=0x14828, asid=0): 0x9b632828
621351043000: system.switch_cpus.mmu.itb: lookup(vpn=0x1482c, asid=0): hit ppn 0x9b632
621351043000: system.switch_cpus.mmu.itb: translate(vpn=0x1482c, asid=0): 0x9b63282c
621351043000: system.switch_cpus.mmu.dtb: lookup(vpn=0x79078, asid=0): miss ppn 0
621351043000: system.switch_cpus.mmu.dtb.walker: Performing table walk for address 0x79078
621351043000: system.switch_cpus.mmu.dtb.walker: Loading level2 PTE from 0x81e57000
621351043000: system.switch_cpus.mmu.dtb.walker: Got level2 PTE: 0x20794001
621351043000: system.switch_cpus.mmu.dtb.walker: Loading level1 PTE from 0x81e50000
621351043000: system.switch_cpus.mmu.dtb.walker: Got level1 PTE: 0x2079ec01
621351043000: system.switch_cpus.mmu.dtb.walker: Loading level0 PTE from 0x81e7b3c8
621351043000: system.switch_cpus.mmu.dtb.walker: Got level0 PTE: 0x26d93cd7
621351043000: system.switch_cpus.mmu.dtb: insert(vpn=0x79000, asid=0): ppn=0x9b64f pte=0x26d93cd7 size=0x1000
621351043000: system.switch_cpus.mmu.dtb: translate(vpn=0x79078, asid=0): 0x9b64f078
621351043500: system.switch_cpus.mmu.itb: lookup(vpn=0x1482c, asid=0): hit ppn 0x9b632
621351043500: system.switch_cpus.mmu.itb: translate(vpn=0x1482c, asid=0): 0x9b63282c
621351044000: system.switch_cpus.mmu.itb: lookup(vpn=0x14830, asid=0): hit ppn 0x9b632
621351044000: system.switch_cpus.mmu.itb: translate(vpn=0x14830, asid=0): 0x9b632830
621351044500: system.switch_cpus.mmu.itb: lookup(vpn=0x14900, asid=0): hit ppn 0x9b632
621351044500: system.switch_cpus.mmu.itb: translate(vpn=0x14900, asid=0): 0x9b632900
621351045000: system.switch_cpus.mmu.itb: lookup(vpn=0x14904, asid=0): hit ppn 0x9b632
621351045000: system.switch_cpus.mmu.itb: translate(vpn=0x14904, asid=0): 0x9b632904
621351045500: system.switch_cpus.mmu.itb: lookup(vpn=0x14904, asid=0): hit ppn 0x9b632
621351045500: system.switch_cpus.mmu.itb: translate(vpn=0x14904, asid=0): 0x9b632904
621351046000: system.switch_cpus.mmu.itb: lookup(vpn=0x14908, asid=0): hit ppn 0x9b632
621351046000: system.switch_cpus.mmu.itb: translate(vpn=0x14908, asid=0): 0x9b632908
621351046000: system.switch_cpus.mmu.dtb: lookup(vpn=0x80b10, asid=0): hit ppn 0x9b671
621351046000: system.switch_cpus.mmu.dtb: translate(vpn=0x80b10, asid=0): 0x9b671b10
621351046500: system.switch_cpus.mmu.itb: lookup(vpn=0x1490c, asid=0): hit ppn 0x9b632
621351046500: system.switch_cpus.mmu.itb: translate(vpn=0x1490c, asid=0): 0x9b63290c
621351047000: system.switch_cpus.mmu.itb: lookup(vpn=0x14830, asid=0): hit ppn 0x9b632
621351047000: system.switch_cpus.mmu.itb: translate(vpn=0x14830, asid=0): 0x9b632830
621351047500: system.switch_cpus.mmu.itb: lookup(vpn=0x14834, asid=0): hit ppn 0x9b632
621351047500: system.switch_cpus.mmu.itb: translate(vpn=0x14834, asid=0): 0x9b632834
621351047500: system.switch_cpus.mmu.dtb: lookup(vpn=0x80000, asid=0): hit ppn 0x9b671
621351047500: system.switch_cpus.mmu.dtb: translate(vpn=0x80000, asid=0): 0x9b671000
621351048000: system.switch_cpus.mmu.itb: lookup(vpn=0x14834, asid=0): hit ppn 0x9b632
621351048000: system.switch_cpus.mmu.itb: translate(vpn=0x14834, asid=0): 0x9b632834
621351048500: system.switch_cpus.mmu.itb: lookup(vpn=0x14838, asid=0): hit ppn 0x9b632
621351048500: system.switch_cpus.mmu.itb: translate(vpn=0x14838, asid=0): 0x9b632838
621351049000: system.switch_cpus.mmu.itb: lookup(vpn=0x1493c, asid=0): hit ppn 0x9b632
621351049000: system.switch_cpus.mmu.itb: translate(vpn=0x1493c, asid=0): 0x9b63293c
621351049500: system.switch_cpus.mmu.itb: lookup(vpn=0x14940, asid=0): hit ppn 0x9b632
621351049500: system.switch_cpus.mmu.itb: translate(vpn=0x14940, asid=0): 0x9b632940
621351050000: system.switch_cpus.mmu.itb: lookup(vpn=0x14944, asid=0): hit ppn 0x9b632
621351050000: system.switch_cpus.mmu.itb: translate(vpn=0x14944, asid=0): 0x9b632944
621351050500: system.switch_cpus.mmu.itb: lookup(vpn=0x14948, asid=0): hit ppn 0x9b632
621351050500: system.switch_cpus.mmu.itb: translate(vpn=0x14948, asid=0): 0x9b632948
621351051000: system.switch_cpus.mmu.itb: lookup(vpn=0x13504, asid=0): miss ppn 0
621351051000: system.switch_cpus.mmu.itb.walker: Performing table walk for address 0x13504
621351051000: system.switch_cpus.mmu.itb.walker: Loading level2 PTE from 0x81e57000
621351051000: system.switch_cpus.mmu.itb.walker: Got level2 PTE: 0x20794001
621351051000: system.switch_cpus.mmu.itb.walker: Loading level1 PTE from 0x81e50000
621351051000: system.switch_cpus.mmu.itb.walker: Got level1 PTE: 0x2079ec01
621351051000: system.switch_cpus.mmu.itb.walker: Loading level0 PTE from 0x81e7b098
621351051000: system.switch_cpus.mmu.itb.walker: Got level0 PTE: 0x26d80c5b
621351051000: system.switch_cpus.mmu.itb: insert(vpn=0x13000, asid=0): ppn=0x9b603 pte=0x26d80c5b size=0x1000
621351051000: system.switch_cpus.mmu.itb: translate(vpn=0x13504, asid=0): 0x9b603504
621351051500: system.switch_cpus.mmu.itb: lookup(vpn=0x13504, asid=0): hit ppn 0x9b603
621351051500: system.switch_cpus.mmu.itb: translate(vpn=0x13504, asid=0): 0x9b603504
621351051500: system.switch_cpus.mmu.dtb: lookup(vpn=0x3fffe94b48, asid=0): hit ppn 0x811eb
621351051500: system.switch_cpus.mmu.dtb: translate(vpn=0x3fffe94b48, asid=0): 0x811ebb48
621351052000: system.switch_cpus.mmu.itb: lookup(vpn=0x13508, asid=0): hit ppn 0x9b603
621351052000: system.switch_cpus.mmu.itb: translate(vpn=0x13508, asid=0): 0x9b603508
621351052000: system.switch_cpus.mmu.dtb: lookup(vpn=0x3fffe94af0, asid=0): hit ppn 0x811eb
621351052000: system.switch_cpus.mmu.dtb: translate(vpn=0x3fffe94af0, asid=0): 0x811ebaf0
621351052500: system.switch_cpus.mmu.itb: lookup(vpn=0x13508, asid=0): hit ppn 0x9b603
621351052500: system.switch_cpus.mmu.itb: translate(vpn=0x13508, asid=0): 0x9b603508
621351053000: system.switch_cpus.mmu.itb: lookup(vpn=0x1350c, asid=0): hit ppn 0x9b603
621351053000: system.switch_cpus.mmu.itb: translate(vpn=0x1350c, asid=0): 0x9b60350c
621351053500: system.switch_cpus.mmu.itb: lookup(vpn=0x1350c, asid=0): hit ppn 0x9b603
621351053500: system.switch_cpus.mmu.itb: translate(vpn=0x1350c, asid=0): 0x9b60350c
621351053500: system.switch_cpus.mmu.dtb: lookup(vpn=0x3fffe94b40, asid=0): hit ppn 0x811eb
621351053500: system.switch_cpus.mmu.dtb: translate(vpn=0x3fffe94b40, asid=0): 0x811ebb40
621351054000: system.switch_cpus.mmu.itb: lookup(vpn=0x13510, asid=0): hit ppn 0x9b603
621351054000: system.switch_cpus.mmu.itb: translate(vpn=0x13510, asid=0): 0x9b603510
621351054000: system.switch_cpus.mmu.dtb: lookup(vpn=0x3fffe94b30, asid=0): hit ppn 0x811eb
621351054000: system.switch_cpus.mmu.dtb: translate(vpn=0x3fffe94b30, asid=0): 0x811ebb30
621351054500: system.switch_cpus.mmu.itb: lookup(vpn=0x13510, asid=0): hit ppn 0x9b603
621351054500: system.switch_cpus.mmu.itb: translate(vpn=0x13510, asid=0): 0x9b603510
621351054500: system.switch_cpus.mmu.dtb: lookup(vpn=0x3fffe94b28, asid=0): hit ppn 0x811eb
621351054500: system.switch_cpus.mmu.dtb: translate(vpn=0x3fffe94b28, asid=0): 0x811ebb28
621351055000: system.switch_cpus.mmu.itb: lookup(vpn=0x13514, asid=0): hit ppn 0x9b603
621351055000: system.switch_cpus.mmu.itb: translate(vpn=0x13514, asid=0): 0x9b603514
621351055000: system.switch_cpus.mmu.dtb: lookup(vpn=0x3fffe94b38, asid=0): hit ppn 0x811eb
621351055000: system.switch_cpus.mmu.dtb: translate(vpn=0x3fffe94b38, asid=0): 0x811ebb38
621351055500: system.switch_cpus.mmu.itb: lookup(vpn=0x13514, asid=0): hit ppn 0x9b603
621351055500: system.switch_cpus.mmu.itb: translate(vpn=0x13514, asid=0): 0x9b603514
621351055500: system.switch_cpus.mmu.dtb: lookup(vpn=0x3fffe94b20, asid=0): hit ppn 0x811eb
621351055500: system.switch_cpus.mmu.dtb: translate(vpn=0x3fffe94b20, asid=0): 0x811ebb20
621351056000: system.switch_cpus.mmu.itb: lookup(vpn=0x13518, asid=0): hit ppn 0x9b603
621351056000: system.switch_cpus.mmu.itb: translate(vpn=0x13518, asid=0): 0x9b603518
621351056500: system.switch_cpus.mmu.itb: lookup(vpn=0x1351c, asid=0): hit ppn 0x9b603
621351056500: system.switch_cpus.mmu.itb: translate(vpn=0x1351c, asid=0): 0x9b60351c
621351057000: system.switch_cpus.mmu.itb: lookup(vpn=0x1351c, asid=0): hit ppn 0x9b603
621351057000: system.switch_cpus.mmu.itb: translate(vpn=0x1351c, asid=0): 0x9b60351c
621351057500: system.switch_cpus.mmu.itb: lookup(vpn=0x13520, asid=0): hit ppn 0x9b603
621351057500: system.switch_cpus.mmu.itb: translate(vpn=0x13520, asid=0): 0x9b603520
621351058000: system.switch_cpus.mmu.itb: lookup(vpn=0x13520, asid=0): hit ppn 0x9b603
621351058000: system.switch_cpus.mmu.itb: translate(vpn=0x13520, asid=0): 0x9b603520
621351058500: system.switch_cpus.mmu.itb: lookup(vpn=0x13524, asid=0): hit ppn 0x9b603
621351058500: system.switch_cpus.mmu.itb: translate(vpn=0x13524, asid=0): 0x9b603524
621351059000: system.switch_cpus.mmu.itb: lookup(vpn=0x137dc, asid=0): hit ppn 0x9b603
621351059000: system.switch_cpus.mmu.itb: translate(vpn=0x137dc, asid=0): 0x9b6037dc
621351059500: system.switch_cpus.mmu.itb: lookup(vpn=0x137e0, asid=0): hit ppn 0x9b603
621351059500: system.switch_cpus.mmu.itb: translate(vpn=0x137e0, asid=0): 0x9b6037e0
621351060000: system.switch_cpus.mmu.itb: lookup(vpn=0x137e0, asid=0): hit ppn 0x9b603
621351060000: system.switch_cpus.mmu.itb: translate(vpn=0x137e0, asid=0): 0x9b6037e0
621351060500: system.switch_cpus.mmu.itb: lookup(vpn=0x137e4, asid=0): hit ppn 0x9b603
621351060500: system.switch_cpus.mmu.itb: translate(vpn=0x137e4, asid=0): 0x9b6037e4
621351061000: system.switch_cpus.mmu.itb: lookup(vpn=0x137e4, asid=0): hit ppn 0x9b603
621351061000: system.switch_cpus.mmu.itb: translate(vpn=0x137e4, asid=0): 0x9b6037e4
621351061500: system.switch_cpus.mmu.itb: lookup(vpn=0x137e8, asid=0): hit ppn 0x9b603
621351061500: system.switch_cpus.mmu.itb: translate(vpn=0x137e8, asid=0): 0x9b6037e8
621351062000: system.switch_cpus.mmu.itb: lookup(vpn=0x137e8, asid=0): hit ppn 0x9b603
621351062000: system.switch_cpus.mmu.itb: translate(vpn=0x137e8, asid=0): 0x9b6037e8
621351062500: system.switch_cpus.mmu.itb: lookup(vpn=0x137ec, asid=0): hit ppn 0x9b603
621351062500: system.switch_cpus.mmu.itb: translate(vpn=0x137ec, asid=0): 0x9b6037ec
621351062500: system.switch_cpus.mmu.dtb: lookup(vpn=0x7f564, asid=0): hit ppn 0x9b63a
621351062500: system.switch_cpus.mmu.dtb: translate(vpn=0x7f564, asid=0): 0x9b63a564
621351063000: system.switch_cpus.mmu.itb: lookup(vpn=0x137ec, asid=0): hit ppn 0x9b603
621351063000: system.switch_cpus.mmu.itb: translate(vpn=0x137ec, asid=0): 0x9b6037ec
621351063500: system.switch_cpus.mmu.itb: lookup(vpn=0x137f0, asid=0): hit ppn 0x9b603
621351063500: system.switch_cpus.mmu.itb: translate(vpn=0x137f0, asid=0): 0x9b6037f0
621351064000: system.switch_cpus.mmu.itb: lookup(vpn=0x138cc, asid=0): hit ppn 0x9b603
621351064000: system.switch_cpus.mmu.itb: translate(vpn=0x138cc, asid=0): 0x9b6038cc
621351064500: system.switch_cpus.mmu.itb: lookup(vpn=0x138d0, asid=0): hit ppn 0x9b603
621351064500: system.switch_cpus.mmu.itb: translate(vpn=0x138d0, asid=0): 0x9b6038d0
621351065000: system.switch_cpus.mmu.itb: lookup(vpn=0x138d4, asid=0): hit ppn 0x9b603
621351065000: system.switch_cpus.mmu.itb: translate(vpn=0x138d4, asid=0): 0x9b6038d4
621351065500: system.switch_cpus.mmu.itb: lookup(vpn=0x138d8, asid=0): hit ppn 0x9b603
621351065500: system.switch_cpus.mmu.itb: translate(vpn=0x138d8, asid=0): 0x9b6038d8
621351066000: system.switch_cpus.mmu.itb: lookup(vpn=0x138d8, asid=0): hit ppn 0x9b603
621351066000: system.switch_cpus.mmu.itb: translate(vpn=0x138d8, asid=0): 0x9b6038d8
621351066000: system.switch_cpus.mmu.dtb: lookup(vpn=0x790b8, asid=0): hit ppn 0x9b64f
621351066000: system.switch_cpus.mmu.dtb: translate(vpn=0x790b8, asid=0): 0x9b64f0b8
621351066500: system.switch_cpus.mmu.itb: lookup(vpn=0x138dc, asid=0): hit ppn 0x9b603
621351066500: system.switch_cpus.mmu.itb: translate(vpn=0x138dc, asid=0): 0x9b6038dc
621351067000: system.switch_cpus.mmu.itb: lookup(vpn=0x138dc, asid=0): hit ppn 0x9b603
621351067000: system.switch_cpus.mmu.itb: translate(vpn=0x138dc, asid=0): 0x9b6038dc
621351067500: system.switch_cpus.mmu.itb: lookup(vpn=0x138e0, asid=0): hit ppn 0x9b603
621351067500: system.switch_cpus.mmu.itb: translate(vpn=0x138e0, asid=0): 0x9b6038e0
621351068000: system.switch_cpus.mmu.itb: lookup(vpn=0x138e4, asid=0): hit ppn 0x9b603
621351068000: system.switch_cpus.mmu.itb: translate(vpn=0x138e4, asid=0): 0x9b6038e4
621351068500: system.switch_cpus.mmu.itb: lookup(vpn=0x138e8, asid=0): hit ppn 0x9b603
621351068500: system.switch_cpus.mmu.itb: translate(vpn=0x138e8, asid=0): 0x9b6038e8
621351069000: system.switch_cpus.mmu.itb: lookup(vpn=0x138ec, asid=0): hit ppn 0x9b603
621351069000: system.switch_cpus.mmu.itb: translate(vpn=0x138ec, asid=0): 0x9b6038ec
621351069500: system.switch_cpus.mmu.itb: lookup(vpn=0x138ec, asid=0): hit ppn 0x9b603
621351069500: system.switch_cpus.mmu.itb: translate(vpn=0x138ec, asid=0): 0x9b6038ec
621351070000: system.switch_cpus.mmu.itb: lookup(vpn=0x138f0, asid=0): hit ppn 0x9b603
621351070000: system.switch_cpus.mmu.itb: translate(vpn=0x138f0, asid=0): 0x9b6038f0
621351070500: system.switch_cpus.mmu.itb: lookup(vpn=0x138f0, asid=0): hit ppn 0x9b603
621351070500: system.switch_cpus.mmu.itb: translate(vpn=0x138f0, asid=0): 0x9b6038f0
621351071000: system.switch_cpus.mmu.itb: lookup(vpn=0x137fc, asid=0): hit ppn 0x9b603
621351071000: system.switch_cpus.mmu.itb: translate(vpn=0x137fc, asid=0): 0x9b6037fc
621351071500: system.switch_cpus.mmu.itb: lookup(vpn=0x137fc, asid=0): hit ppn 0x9b603
621351071500: system.switch_cpus.mmu.itb: translate(vpn=0x137fc, asid=0): 0x9b6037fc
621351071500: system.switch_cpus.mmu.dtb: lookup(vpn=0x79130, asid=0): hit ppn 0x9b64f
621351071500: system.switch_cpus.mmu.dtb: translate(vpn=0x79130, asid=0): 0x9b64f130
621351072000: system.switch_cpus.mmu.itb: lookup(vpn=0x13800, asid=0): hit ppn 0x9b603
621351072000: system.switch_cpus.mmu.itb: translate(vpn=0x13800, asid=0): 0x9b603800
621351072500: system.switch_cpus.mmu.itb: lookup(vpn=0x13804, asid=0): hit ppn 0x9b603
621351072500: system.switch_cpus.mmu.itb: translate(vpn=0x13804, asid=0): 0x9b603804
621351073000: system.switch_cpus.mmu.itb: lookup(vpn=0x139a4, asid=0): hit ppn 0x9b603
621351073000: system.switch_cpus.mmu.itb: translate(vpn=0x139a4, asid=0): 0x9b6039a4
621351073000: system.switch_cpus.mmu.dtb: lookup(vpn=0x3fffe94b18, asid=0): hit ppn 0x811eb
621351073000: system.switch_cpus.mmu.dtb: translate(vpn=0x3fffe94b18, asid=0): 0x811ebb18
621351073500: system.switch_cpus.mmu.itb: lookup(vpn=0x139a8, asid=0): hit ppn 0x9b603
621351073500: system.switch_cpus.mmu.itb: translate(vpn=0x139a8, asid=0): 0x9b6039a8
621351073500: system.switch_cpus.mmu.dtb: lookup(vpn=0x3fffe94b10, asid=0): hit ppn 0x811eb
621351073500: system.switch_cpus.mmu.dtb: translate(vpn=0x3fffe94b10, asid=0): 0x811ebb10
621351074000: system.switch_cpus.mmu.itb: lookup(vpn=0x139a8, asid=0): hit ppn 0x9b603
621351074000: system.switch_cpus.mmu.itb: translate(vpn=0x139a8, asid=0): 0x9b6039a8
621351074000: system.switch_cpus.mmu.dtb: lookup(vpn=0x3fffe94b08, asid=0): hit ppn 0x811eb
621351074000: system.switch_cpus.mmu.dtb: translate(vpn=0x3fffe94b08, asid=0): 0x811ebb08
621351074500: system.switch_cpus.mmu.itb: lookup(vpn=0x139ac, asid=0): hit ppn 0x9b603
621351074500: system.switch_cpus.mmu.itb: translate(vpn=0x139ac, asid=0): 0x9b6039ac
621351074500: system.switch_cpus.mmu.dtb: lookup(vpn=0x3fffe94b00, asid=0): hit ppn 0x811eb
621351074500: system.switch_cpus.mmu.dtb: translate(vpn=0x3fffe94b00, asid=0): 0x811ebb00
621351075000: system.switch_cpus.mmu.itb: lookup(vpn=0x139ac, asid=0): hit ppn 0x9b603
621351075000: system.switch_cpus.mmu.itb: translate(vpn=0x139ac, asid=0): 0x9b6039ac
621351075000: system.switch_cpus.mmu.dtb: lookup(vpn=0x3fffe94af8, asid=0): hit ppn 0x811eb
621351075000: system.switch_cpus.mmu.dtb: translate(vpn=0x3fffe94af8, asid=0): 0x811ebaf8
621351075500: system.switch_cpus.mmu.itb: lookup(vpn=0x139b0, asid=0): hit ppn 0x9b603
621351075500: system.switch_cpus.mmu.itb: translate(vpn=0x139b0, asid=0): 0x9b6039b0
621351076000: system.switch_cpus.mmu.itb: lookup(vpn=0x136e0, asid=0): hit ppn 0x9b603
621351076000: system.switch_cpus.mmu.itb: translate(vpn=0x136e0, asid=0): 0x9b6036e0
621351076500: system.switch_cpus.mmu.itb: lookup(vpn=0x136e4, asid=0): hit ppn 0x9b603
621351076500: system.switch_cpus.mmu.itb: translate(vpn=0x136e4, asid=0): 0x9b6036e4
621351077000: system.switch_cpus.mmu.itb: lookup(vpn=0x136e4, asid=0): hit ppn 0x9b603
621351077000: system.switch_cpus.mmu.itb: translate(vpn=0x136e4, asid=0): 0x9b6036e4
621351077000: system.switch_cpus.mmu.dtb: lookup(vpn=0x80788, asid=0): hit ppn 0x9b671
621351077000: system.switch_cpus.mmu.dtb: translate(vpn=0x80788, asid=0): 0x9b671788
621351077500: system.switch_cpus.mmu.itb: lookup(vpn=0x136e8, asid=0): hit ppn 0x9b603
621351077500: system.switch_cpus.mmu.itb: translate(vpn=0x136e8, asid=0): 0x9b6036e8
621351078000: system.switch_cpus.mmu.itb: lookup(vpn=0x136ec, asid=0): hit ppn 0x9b603
621351078000: system.switch_cpus.mmu.itb: translate(vpn=0x136ec, asid=0): 0x9b6036ec
621351078500: system.switch_cpus.mmu.itb: lookup(vpn=0x136f0, asid=0): hit ppn 0x9b603
621351078500: system.switch_cpus.mmu.itb: translate(vpn=0x136f0, asid=0): 0x9b6036f0
621351079000: system.switch_cpus.mmu.itb: lookup(vpn=0x136f0, asid=0): hit ppn 0x9b603
621351079000: system.switch_cpus.mmu.itb: translate(vpn=0x136f0, asid=0): 0x9b6036f0
621351079500: system.switch_cpus.mmu.itb: lookup(vpn=0x136f4, asid=0): hit ppn 0x9b603
621351079500: system.switch_cpus.mmu.itb: translate(vpn=0x136f4, asid=0): 0x9b6036f4
621351080000: system.switch_cpus.mmu.itb: lookup(vpn=0x136f8, asid=0): hit ppn 0x9b603
621351080000: system.switch_cpus.mmu.itb: translate(vpn=0x136f8, asid=0): 0x9b6036f8
621351080000: system.switch_cpus.mmu.dtb: lookup(vpn=0x79078, asid=0): hit ppn 0x9b64f
621351080000: system.switch_cpus.mmu.dtb: translate(vpn=0x79078, asid=0): 0x9b64f078
621351080500: system.switch_cpus.mmu.itb: lookup(vpn=0x136fc, asid=0): hit ppn 0x9b603
621351080500: system.switch_cpus.mmu.itb: translate(vpn=0x136fc, asid=0): 0x9b6036fc
621351081000: system.switch_cpus.mmu.itb: lookup(vpn=0x13700, asid=0): hit ppn 0x9b603
621351081000: system.switch_cpus.mmu.itb: translate(vpn=0x13700, asid=0): 0x9b603700
621351081500: system.switch_cpus.mmu.itb: lookup(vpn=0x13704, asid=0): hit ppn 0x9b603
621351081500: system.switch_cpus.mmu.itb: translate(vpn=0x13704, asid=0): 0x9b603704
621351082000: system.switch_cpus.mmu.itb: lookup(vpn=0x13708, asid=0): hit ppn 0x9b603
621351082000: system.switch_cpus.mmu.itb: translate(vpn=0x13708, asid=0): 0x9b603708
621351082000: system.switch_cpus.mmu.dtb: lookup(vpn=0x79120, asid=0): hit ppn 0x9b64f
621351082000: system.switch_cpus.mmu.dtb: translate(vpn=0x79120, asid=0): 0x9b64f120
621351082500: system.switch_cpus.mmu.itb: lookup(vpn=0x1370c, asid=0): hit ppn 0x9b603
621351082500: system.switch_cpus.mmu.itb: translate(vpn=0x1370c, asid=0): 0x9b60370c
621351083000: system.switch_cpus.mmu.itb: lookup(vpn=0x13710, asid=0): hit ppn 0x9b603
621351083000: system.switch_cpus.mmu.itb: translate(vpn=0x13710, asid=0): 0x9b603710
621351083500: system.switch_cpus.mmu.itb: lookup(vpn=0x13710, asid=0): hit ppn 0x9b603
621351083500: system.switch_cpus.mmu.itb: translate(vpn=0x13710, asid=0): 0x9b603710
621351084000: system.switch_cpus.mmu.itb: lookup(vpn=0x13714, asid=0): hit ppn 0x9b603
621351084000: system.switch_cpus.mmu.itb: translate(vpn=0x13714, asid=0): 0x9b603714
621351084500: system.switch_cpus.mmu.itb: lookup(vpn=0x13ab4, asid=0): hit ppn 0x9b603
621351084500: system.switch_cpus.mmu.itb: translate(vpn=0x13ab4, asid=0): 0x9b603ab4
621351085000: system.switch_cpus.mmu.itb: lookup(vpn=0x13ab8, asid=0): hit ppn 0x9b603
621351085000: system.switch_cpus.mmu.itb: translate(vpn=0x13ab8, asid=0): 0x9b603ab8
621351085500: system.switch_cpus.mmu.itb: lookup(vpn=0x13abc, asid=0): hit ppn 0x9b603
621351085500: system.switch_cpus.mmu.itb: translate(vpn=0x13abc, asid=0): 0x9b603abc
621351085500: system.switch_cpus.mmu.dtb: lookup(vpn=0x3fffe94ae8, asid=0): hit ppn 0x811eb
621351085500: system.switch_cpus.mmu.dtb: translate(vpn=0x3fffe94ae8, asid=0): 0x811ebae8
621351086000: system.switch_cpus.mmu.itb: lookup(vpn=0x13abc, asid=0): hit ppn 0x9b603
621351086000: system.switch_cpus.mmu.itb: translate(vpn=0x13abc, asid=0): 0x9b603abc
621351086500: system.switch_cpus.mmu.itb: lookup(vpn=0x13ac0, asid=0): hit ppn 0x9b603
621351086500: system.switch_cpus.mmu.itb: translate(vpn=0x13ac0, asid=0): 0x9b603ac0
621351087000: system.switch_cpus.mmu.itb: lookup(vpn=0x13ac0, asid=0): hit ppn 0x9b603
621351087000: system.switch_cpus.mmu.itb: translate(vpn=0x13ac0, asid=0): 0x9b603ac0
621351087500: system.switch_cpus.mmu.itb: lookup(vpn=0x13ac4, asid=0): hit ppn 0x9b603
621351087500: system.switch_cpus.mmu.itb: translate(vpn=0x13ac4, asid=0): 0x9b603ac4
621351088000: system.switch_cpus.mmu.itb: lookup(vpn=0x13ac4, asid=0): hit ppn 0x9b603
621351088000: system.switch_cpus.mmu.itb: translate(vpn=0x13ac4, asid=0): 0x9b603ac4
621351088500: system.switch_cpus.mmu.itb: lookup(vpn=0x13ac8, asid=0): hit ppn 0x9b603
621351088500: system.switch_cpus.mmu.itb: translate(vpn=0x13ac8, asid=0): 0x9b603ac8
621351089000: system.switch_cpus.mmu.itb: lookup(vpn=0x13ac8, asid=0): hit ppn 0x9b603
621351089000: system.switch_cpus.mmu.itb: translate(vpn=0x13ac8, asid=0): 0x9b603ac8
621351089500: system.switch_cpus.mmu.itb: lookup(vpn=0x13acc, asid=0): hit ppn 0x9b603
621351089500: system.switch_cpus.mmu.itb: translate(vpn=0x13acc, asid=0): 0x9b603acc
621351090000: system.switch_cpus.mmu.itb: lookup(vpn=0x13acc, asid=0): hit ppn 0x9b603
621351090000: system.switch_cpus.mmu.itb: translate(vpn=0x13acc, asid=0): 0x9b603acc
621351090500: system.switch_cpus.mmu.itb: lookup(vpn=0x13ad0, asid=0): hit ppn 0x9b603
621351090500: system.switch_cpus.mmu.itb: translate(vpn=0x13ad0, asid=0): 0x9b603ad0
621351091000: system.switch_cpus.mmu.itb: lookup(vpn=0x13ad0, asid=0): hit ppn 0x9b603
621351091000: system.switch_cpus.mmu.itb: translate(vpn=0x13ad0, asid=0): 0x9b603ad0
621351091500: system.switch_cpus.mmu.itb: lookup(vpn=0x13ad4, asid=0): hit ppn 0x9b603
621351091500: system.switch_cpus.mmu.itb: translate(vpn=0x13ad4, asid=0): 0x9b603ad4
621351092000: system.switch_cpus.mmu.itb: lookup(vpn=0x13ad4, asid=0): hit ppn 0x9b603
621351092000: system.switch_cpus.mmu.itb: translate(vpn=0x13ad4, asid=0): 0x9b603ad4
621351092500: system.switch_cpus.mmu.itb: lookup(vpn=0x13ad8, asid=0): hit ppn 0x9b603
621351092500: system.switch_cpus.mmu.itb: translate(vpn=0x13ad8, asid=0): 0x9b603ad8
621351093000: system.switch_cpus.mmu.itb: lookup(vpn=0x13ad8, asid=0): hit ppn 0x9b603
621351093000: system.switch_cpus.mmu.itb: translate(vpn=0x13ad8, asid=0): 0x9b603ad8
621351093500: system.switch_cpus.mmu.itb: lookup(vpn=0x13adc, asid=0): hit ppn 0x9b603
621351093500: system.switch_cpus.mmu.itb: translate(vpn=0x13adc, asid=0): 0x9b603adc
621351094000: system.switch_cpus.mmu.itb: lookup(vpn=0x13adc, asid=0): hit ppn 0x9b603
621351094000: system.switch_cpus.mmu.itb: translate(vpn=0x13adc, asid=0): 0x9b603adc
621351094000: system.switch_cpus.mmu.dtb: lookup(vpn=0x79908, asid=0): hit ppn 0x9b64f
621351094000: system.switch_cpus.mmu.dtb: translate(vpn=0x79908, asid=0): 0x9b64f908
621351094500: system.switch_cpus.mmu.itb: lookup(vpn=0x13ae0, asid=0): hit ppn 0x9b603
621351094500: system.switch_cpus.mmu.itb: translate(vpn=0x13ae0, asid=0): 0x9b603ae0
621351095000: system.switch_cpus.mmu.itb: lookup(vpn=0x13ae0, asid=0): hit ppn 0x9b603
621351095000: system.switch_cpus.mmu.itb: translate(vpn=0x13ae0, asid=0): 0x9b603ae0
621351095500: system.switch_cpus.mmu.itb: lookup(vpn=0x13ae4, asid=0): hit ppn 0x9b603
621351095500: system.switch_cpus.mmu.itb: translate(vpn=0x13ae4, asid=0): 0x9b603ae4
621351096000: system.switch_cpus.mmu.itb: lookup(vpn=0x13ae4, asid=0): hit ppn 0x9b603
621351096000: system.switch_cpus.mmu.itb: translate(vpn=0x13ae4, asid=0): 0x9b603ae4
621351096500: system.switch_cpus.mmu.itb: lookup(vpn=0x13ae8, asid=0): hit ppn 0x9b603
621351096500: system.switch_cpus.mmu.itb: translate(vpn=0x13ae8, asid=0): 0x9b603ae8
621351097000: system.switch_cpus.mmu.itb: lookup(vpn=0x13aec, asid=0): hit ppn 0x9b603
621351097000: system.switch_cpus.mmu.itb: translate(vpn=0x13aec, asid=0): 0x9b603aec
621351097500: system.switch_cpus.mmu.itb: lookup(vpn=0x13be8, asid=0): hit ppn 0x9b603
621351097500: system.switch_cpus.mmu.itb: translate(vpn=0x13be8, asid=0): 0x9b603be8
621351098000: system.switch_cpus.mmu.itb: lookup(vpn=0x13bec, asid=0): hit ppn 0x9b603
621351098000: system.switch_cpus.mmu.itb: translate(vpn=0x13bec, asid=0): 0x9b603bec
621351098500: system.switch_cpus.mmu.itb: lookup(vpn=0x13bec, asid=0): hit ppn 0x9b603
621351098500: system.switch_cpus.mmu.itb: translate(vpn=0x13bec, asid=0): 0x9b603bec
621351099000: system.switch_cpus.mmu.itb: lookup(vpn=0x13bf0, asid=0): hit ppn 0x9b603
621351099000: system.switch_cpus.mmu.itb: translate(vpn=0x13bf0, asid=0): 0x9b603bf0
621351099500: system.switch_cpus.mmu.itb: lookup(vpn=0x13bf0, asid=0): hit ppn 0x9b603
621351099500: system.switch_cpus.mmu.itb: translate(vpn=0x13bf0, asid=0): 0x9b603bf0
621351100000: system.switch_cpus.mmu.itb: lookup(vpn=0x13bf4, asid=0): hit ppn 0x9b603
621351100000: system.switch_cpus.mmu.itb: translate(vpn=0x13bf4, asid=0): 0x9b603bf4
621351100500: system.switch_cpus.mmu.itb: lookup(vpn=0x13bf8, asid=0): hit ppn 0x9b603
621351100500: system.switch_cpus.mmu.itb: translate(vpn=0x13bf8, asid=0): 0x9b603bf8
621351101000: system.switch_cpus.mmu.itb: lookup(vpn=0x13bf8, asid=0): hit ppn 0x9b603
621351101000: system.switch_cpus.mmu.itb: translate(vpn=0x13bf8, asid=0): 0x9b603bf8
621351101500: system.switch_cpus.mmu.itb: lookup(vpn=0x13bfc, asid=0): hit ppn 0x9b603
621351101500: system.switch_cpus.mmu.itb: translate(vpn=0x13bfc, asid=0): 0x9b603bfc
621351102000: system.switch_cpus.mmu.itb: lookup(vpn=0x13c08, asid=0): hit ppn 0x9b603
621351102000: system.switch_cpus.mmu.itb: translate(vpn=0x13c08, asid=0): 0x9b603c08
621351102500: system.switch_cpus.mmu.itb: lookup(vpn=0x13c0c, asid=0): hit ppn 0x9b603
621351102500: system.switch_cpus.mmu.itb: translate(vpn=0x13c0c, asid=0): 0x9b603c0c
621351103000: system.switch_cpus.mmu.itb: lookup(vpn=0x13c0c, asid=0): hit ppn 0x9b603
621351103000: system.switch_cpus.mmu.itb: translate(vpn=0x13c0c, asid=0): 0x9b603c0c
621351103500: system.switch_cpus.mmu.itb: lookup(vpn=0x13c10, asid=0): hit ppn 0x9b603
621351103500: system.switch_cpus.mmu.itb: translate(vpn=0x13c10, asid=0): 0x9b603c10
621351104000: system.switch_cpus.mmu.itb: lookup(vpn=0x13bfc, asid=0): hit ppn 0x9b603
621351104000: system.switch_cpus.mmu.itb: translate(vpn=0x13bfc, asid=0): 0x9b603bfc
621351104000: system.switch_cpus.mmu.dtb: lookup(vpn=0x7990c, asid=0): hit ppn 0x9b64f
621351104000: system.switch_cpus.mmu.dtb: translate(vpn=0x7990c, asid=0): 0x9b64f90c
621351104500: system.switch_cpus.mmu.itb: lookup(vpn=0x13c00, asid=0): hit ppn 0x9b603
621351104500: system.switch_cpus.mmu.itb: translate(vpn=0x13c00, asid=0): 0x9b603c00
621351105000: system.switch_cpus.mmu.itb: lookup(vpn=0x13c00, asid=0): hit ppn 0x9b603
621351105000: system.switch_cpus.mmu.itb: translate(vpn=0x13c00, asid=0): 0x9b603c00
621351105500: system.switch_cpus.mmu.itb: lookup(vpn=0x13c04, asid=0): hit ppn 0x9b603
621351105500: system.switch_cpus.mmu.itb: translate(vpn=0x13c04, asid=0): 0x9b603c04
621351106000: system.switch_cpus.mmu.itb: lookup(vpn=0x13c04, asid=0): hit ppn 0x9b603
621351106000: system.switch_cpus.mmu.itb: translate(vpn=0x13c04, asid=0): 0x9b603c04
621351106500: system.switch_cpus.mmu.itb: lookup(vpn=0x13c08, asid=0): hit ppn 0x9b603
621351106500: system.switch_cpus.mmu.itb: translate(vpn=0x13c08, asid=0): 0x9b603c08
621351107000: system.switch_cpus.mmu.itb: lookup(vpn=0x13c08, asid=0): hit ppn 0x9b603
621351107000: system.switch_cpus.mmu.itb: translate(vpn=0x13c08, asid=0): 0x9b603c08
621351107500: system.switch_cpus.mmu.itb: lookup(vpn=0x13c0c, asid=0): hit ppn 0x9b603
621351107500: system.switch_cpus.mmu.itb: translate(vpn=0x13c0c, asid=0): 0x9b603c0c
621351108000: system.switch_cpus.mmu.itb: lookup(vpn=0x13c0c, asid=0): hit ppn 0x9b603
621351108000: system.switch_cpus.mmu.itb: translate(vpn=0x13c0c, asid=0): 0x9b603c0c
621351108500: system.switch_cpus.mmu.itb: lookup(vpn=0x13c10, asid=0): hit ppn 0x9b603
621351108500: system.switch_cpus.mmu.itb: translate(vpn=0x13c10, asid=0): 0x9b603c10
621351109000: system.switch_cpus.mmu.itb: lookup(vpn=0x13bfc, asid=0): hit ppn 0x9b603
621351109000: system.switch_cpus.mmu.itb: translate(vpn=0x13bfc, asid=0): 0x9b603bfc
621351109000: system.switch_cpus.mmu.dtb: lookup(vpn=0x79910, asid=0): hit ppn 0x9b64f
621351109000: system.switch_cpus.mmu.dtb: translate(vpn=0x79910, asid=0): 0x9b64f910
621351109500: system.switch_cpus.mmu.itb: lookup(vpn=0x13c00, asid=0): hit ppn 0x9b603
621351109500: system.switch_cpus.mmu.itb: translate(vpn=0x13c00, asid=0): 0x9b603c00
621351110000: system.switch_cpus.mmu.itb: lookup(vpn=0x13c00, asid=0): hit ppn 0x9b603
621351110000: system.switch_cpus.mmu.itb: translate(vpn=0x13c00, asid=0): 0x9b603c00
621351110500: system.switch_cpus.mmu.itb: lookup(vpn=0x13c04, asid=0): hit ppn 0x9b603
621351110500: system.switch_cpus.mmu.itb: translate(vpn=0x13c04, asid=0): 0x9b603c04
621351111000: system.switch_cpus.mmu.itb: lookup(vpn=0x13c04, asid=0): hit ppn 0x9b603
621351111000: system.switch_cpus.mmu.itb: translate(vpn=0x13c04, asid=0): 0x9b603c04
621351111500: system.switch_cpus.mmu.itb: lookup(vpn=0x13c08, asid=0): hit ppn 0x9b603
621351111500: system.switch_cpus.mmu.itb: translate(vpn=0x13c08, asid=0): 0x9b603c08
621351112000: system.switch_cpus.mmu.itb: lookup(vpn=0x13c08, asid=0): hit ppn 0x9b603
621351112000: system.switch_cpus.mmu.itb: translate(vpn=0x13c08, asid=0): 0x9b603c08
621351112500: system.switch_cpus.mmu.itb: lookup(vpn=0x13c0c, asid=0): hit ppn 0x9b603
621351112500: system.switch_cpus.mmu.itb: translate(vpn=0x13c0c, asid=0): 0x9b603c0c
621351113000: system.switch_cpus.mmu.itb: lookup(vpn=0x13c0c, asid=0): hit ppn 0x9b603
621351113000: system.switch_cpus.mmu.itb: translate(vpn=0x13c0c, asid=0): 0x9b603c0c
621351113500: system.switch_cpus.mmu.itb: lookup(vpn=0x13c10, asid=0): hit ppn 0x9b603
621351113500: system.switch_cpus.mmu.itb: translate(vpn=0x13c10, asid=0): 0x9b603c10
621351114000: system.switch_cpus.mmu.itb: lookup(vpn=0x13bfc, asid=0): hit ppn 0x9b603
621351114000: system.switch_cpus.mmu.itb: translate(vpn=0x13bfc, asid=0): 0x9b603bfc
621351114000: system.switch_cpus.mmu.dtb: lookup(vpn=0x79914, asid=0): hit ppn 0x9b64f
621351114000: system.switch_cpus.mmu.dtb: translate(vpn=0x79914, asid=0): 0x9b64f914
621351114500: system.switch_cpus.mmu.itb: lookup(vpn=0x13c00, asid=0): hit ppn 0x9b603
621351114500: system.switch_cpus.mmu.itb: translate(vpn=0x13c00, asid=0): 0x9b603c00
621351115000: system.switch_cpus.mmu.itb: lookup(vpn=0x13c00, asid=0): hit ppn 0x9b603
621351115000: system.switch_cpus.mmu.itb: translate(vpn=0x13c00, asid=0): 0x9b603c00
621351115500: system.switch_cpus.mmu.itb: lookup(vpn=0x13c04, asid=0): hit ppn 0x9b603
621351115500: system.switch_cpus.mmu.itb: translate(vpn=0x13c04, asid=0): 0x9b603c04
621351116000: system.switch_cpus.mmu.itb: lookup(vpn=0x13c04, asid=0): hit ppn 0x9b603
621351116000: system.switch_cpus.mmu.itb: translate(vpn=0x13c04, asid=0): 0x9b603c04
621351116500: system.switch_cpus.mmu.itb: lookup(vpn=0x13c08, asid=0): hit ppn 0x9b603
621351116500: system.switch_cpus.mmu.itb: translate(vpn=0x13c08, asid=0): 0x9b603c08
621351117000: system.switch_cpus.mmu.itb: lookup(vpn=0x13c08, asid=0): hit ppn 0x9b603
621351117000: system.switch_cpus.mmu.itb: translate(vpn=0x13c08, asid=0): 0x9b603c08
621351117500: system.switch_cpus.mmu.itb: lookup(vpn=0x13c0c, asid=0): hit ppn 0x9b603
621351117500: system.switch_cpus.mmu.itb: translate(vpn=0x13c0c, asid=0): 0x9b603c0c
621351118000: system.switch_cpus.mmu.itb: lookup(vpn=0x13c0c, asid=0): hit ppn 0x9b603
621351118000: system.switch_cpus.mmu.itb: translate(vpn=0x13c0c, asid=0): 0x9b603c0c
621351118500: system.switch_cpus.mmu.itb: lookup(vpn=0x13c10, asid=0): hit ppn 0x9b603
621351118500: system.switch_cpus.mmu.itb: translate(vpn=0x13c10, asid=0): 0x9b603c10
621351119000: system.switch_cpus.mmu.itb: lookup(vpn=0x13c10, asid=0): hit ppn 0x9b603
621351119000: system.switch_cpus.mmu.itb: translate(vpn=0x13c10, asid=0): 0x9b603c10
621351119500: system.switch_cpus.mmu.itb: lookup(vpn=0x13c14, asid=0): hit ppn 0x9b603
621351119500: system.switch_cpus.mmu.itb: translate(vpn=0x13c14, asid=0): 0x9b603c14
621351119500: system.switch_cpus.mmu.dtb: lookup(vpn=0x79108, asid=0): hit ppn 0x9b64f
621351119500: system.switch_cpus.mmu.dtb: translate(vpn=0x79108, asid=0): 0x9b64f108
621351120000: system.switch_cpus.mmu.itb: lookup(vpn=0x13c14, asid=0): hit ppn 0x9b603
621351120000: system.switch_cpus.mmu.itb: translate(vpn=0x13c14, asid=0): 0x9b603c14
621351120500: system.switch_cpus.mmu.itb: lookup(vpn=0x13c18, asid=0): hit ppn 0x9b603
621351120500: system.switch_cpus.mmu.itb: translate(vpn=0x13c18, asid=0): 0x9b603c18
621351121000: system.switch_cpus.mmu.itb: lookup(vpn=0x13c18, asid=0): hit ppn 0x9b603
621351121000: system.switch_cpus.mmu.itb: translate(vpn=0x13c18, asid=0): 0x9b603c18
621351121000: system.switch_cpus.mmu.dtb: lookup(vpn=0x814b8, asid=0): miss ppn 0
621351121000: system.switch_cpus.mmu.dtb.walker: Performing table walk for address 0x814b8
621351121000: system.switch_cpus.mmu.dtb.walker: Loading level2 PTE from 0x81e57000
621351121000: system.switch_cpus.mmu.dtb.walker: Got level2 PTE: 0x20794001
621351121000: system.switch_cpus.mmu.dtb.walker: Loading level1 PTE from 0x81e50000
621351121000: system.switch_cpus.mmu.dtb.walker: Got level1 PTE: 0x2079ec01
621351121000: system.switch_cpus.mmu.dtb.walker: Loading level0 PTE from 0x81e7b408
621351121000: system.switch_cpus.mmu.dtb.walker: Got level0 PTE: 0x26da1cd7
621351121000: system.switch_cpus.mmu.dtb: insert(vpn=0x81000, asid=0): ppn=0x9b687 pte=0x26da1cd7 size=0x1000
621351121000: system.switch_cpus.mmu.dtb: translate(vpn=0x814b8, asid=0): 0x9b6874b8
621351121500: system.switch_cpus.mmu.itb: lookup(vpn=0x13c1c, asid=0): hit ppn 0x9b603
621351121500: system.switch_cpus.mmu.itb: translate(vpn=0x13c1c, asid=0): 0x9b603c1c
621351121500: system.switch_cpus.mmu.dtb: lookup(vpn=0x79930, asid=0): hit ppn 0x9b64f
621351121500: system.switch_cpus.mmu.dtb: translate(vpn=0x79930, asid=0): 0x9b64f930
621351122000: system.switch_cpus.mmu.itb: lookup(vpn=0x13c20, asid=0): hit ppn 0x9b603
621351122000: system.switch_cpus.mmu.itb: translate(vpn=0x13c20, asid=0): 0x9b603c20
621351122500: system.switch_cpus.mmu.itb: lookup(vpn=0x13c20, asid=0): hit ppn 0x9b603
621351122500: system.switch_cpus.mmu.itb: translate(vpn=0x13c20, asid=0): 0x9b603c20
621351123000: system.switch_cpus.mmu.itb: lookup(vpn=0x13c24, asid=0): hit ppn 0x9b603
621351123000: system.switch_cpus.mmu.itb: translate(vpn=0x13c24, asid=0): 0x9b603c24
621351123500: system.switch_cpus.mmu.itb: lookup(vpn=0x13c24, asid=0): hit ppn 0x9b603
621351123500: system.switch_cpus.mmu.itb: translate(vpn=0x13c24, asid=0): 0x9b603c24
621351124000: system.switch_cpus.mmu.itb: lookup(vpn=0x13c28, asid=0): hit ppn 0x9b603
621351124000: system.switch_cpus.mmu.itb: translate(vpn=0x13c28, asid=0): 0x9b603c28
621351124500: system.switch_cpus.mmu.itb: lookup(vpn=0x13c28, asid=0): hit ppn 0x9b603
621351124500: system.switch_cpus.mmu.itb: translate(vpn=0x13c28, asid=0): 0x9b603c28
621351125000: system.switch_cpus.mmu.itb: lookup(vpn=0x13c2c, asid=0): hit ppn 0x9b603
621351125000: system.switch_cpus.mmu.itb: translate(vpn=0x13c2c, asid=0): 0x9b603c2c
621351125500: system.switch_cpus.mmu.itb: lookup(vpn=0x14100, asid=0): hit ppn 0x9b632
621351125500: system.switch_cpus.mmu.itb: translate(vpn=0x14100, asid=0): 0x9b632100
621351126000: system.switch_cpus.mmu.itb: lookup(vpn=0x14104, asid=0): hit ppn 0x9b632
621351126000: system.switch_cpus.mmu.itb: translate(vpn=0x14104, asid=0): 0x9b632104
621351126500: system.switch_cpus.mmu.itb: lookup(vpn=0x14108, asid=0): hit ppn 0x9b632
621351126500: system.switch_cpus.mmu.itb: translate(vpn=0x14108, asid=0): 0x9b632108
621351127000: system.switch_cpus.mmu.itb: lookup(vpn=0x1410c, asid=0): hit ppn 0x9b632
621351127000: system.switch_cpus.mmu.itb: translate(vpn=0x1410c, asid=0): 0x9b63210c
621351127500: system.switch_cpus.mmu.itb: lookup(vpn=0x14110, asid=0): hit ppn 0x9b632
621351127500: system.switch_cpus.mmu.itb: translate(vpn=0x14110, asid=0): 0x9b632110
621351128000: system.switch_cpus.mmu.itb: lookup(vpn=0x14110, asid=0): hit ppn 0x9b632
621351128000: system.switch_cpus.mmu.itb: translate(vpn=0x14110, asid=0): 0x9b632110
621351128500: system.switch_cpus.mmu.itb: lookup(vpn=0x14114, asid=0): hit ppn 0x9b632
621351128500: system.switch_cpus.mmu.itb: translate(vpn=0x14114, asid=0): 0x9b632114
621351129000: system.switch_cpus.mmu.itb: lookup(vpn=0x14114, asid=0): hit ppn 0x9b632
621351129000: system.switch_cpus.mmu.itb: translate(vpn=0x14114, asid=0): 0x9b632114
621351129500: system.switch_cpus.mmu.itb: lookup(vpn=0x14118, asid=0): hit ppn 0x9b632
621351129500: system.switch_cpus.mmu.itb: translate(vpn=0x14118, asid=0): 0x9b632118
621351129500: system.switch_cpus.mmu.dtb: lookup(vpn=0x79108, asid=0): hit ppn 0x9b64f
621351129500: system.switch_cpus.mmu.dtb: translate(vpn=0x79108, asid=0): 0x9b64f108
621351130000: system.switch_cpus.mmu.itb: lookup(vpn=0x1411c, asid=0): hit ppn 0x9b632
621351130000: system.switch_cpus.mmu.itb: translate(vpn=0x1411c, asid=0): 0x9b63211c
621351130500: system.switch_cpus.mmu.itb: lookup(vpn=0x14120, asid=0): hit ppn 0x9b632
621351130500: system.switch_cpus.mmu.itb: translate(vpn=0x14120, asid=0): 0x9b632120
621351131000: system.switch_cpus.mmu.itb: lookup(vpn=0x14120, asid=0): hit ppn 0x9b632
621351131000: system.switch_cpus.mmu.itb: translate(vpn=0x14120, asid=0): 0x9b632120
621351131000: system.switch_cpus.mmu.dtb: lookup(vpn=0x814b8, asid=0): hit ppn 0x9b687
621351131000: system.switch_cpus.mmu.dtb: translate(vpn=0x814b8, asid=0): 0x9b6874b8
621351131500: system.switch_cpus.mmu.itb: lookup(vpn=0x14124, asid=0): hit ppn 0x9b632
621351131500: system.switch_cpus.mmu.itb: translate(vpn=0x14124, asid=0): 0x9b632124
621351132000: system.switch_cpus.mmu.itb: lookup(vpn=0x14128, asid=0): hit ppn 0x9b632
621351132000: system.switch_cpus.mmu.itb: translate(vpn=0x14128, asid=0): 0x9b632128
621351132500: system.switch_cpus.mmu.itb: lookup(vpn=0x1412c, asid=0): hit ppn 0x9b632
621351132500: system.switch_cpus.mmu.itb: translate(vpn=0x1412c, asid=0): 0x9b63212c
621351132500: system.switch_cpus.mmu.dtb: lookup(vpn=0x814d8, asid=0): hit ppn 0x9b687
621351132500: system.switch_cpus.mmu.dtb: translate(vpn=0x814d8, asid=0): 0x9b6874d8
621351133000: system.switch_cpus.mmu.itb: lookup(vpn=0x1412c, asid=0): hit ppn 0x9b632
621351133000: system.switch_cpus.mmu.itb: translate(vpn=0x1412c, asid=0): 0x9b63212c
621351133500: system.switch_cpus.mmu.itb: lookup(vpn=0x14130, asid=0): hit ppn 0x9b632
621351133500: system.switch_cpus.mmu.itb: translate(vpn=0x14130, asid=0): 0x9b632130
621351134000: system.switch_cpus.mmu.itb: lookup(vpn=0x14130, asid=0): hit ppn 0x9b632
621351134000: system.switch_cpus.mmu.itb: translate(vpn=0x14130, asid=0): 0x9b632130
621351134500: system.switch_cpus.mmu.itb: lookup(vpn=0x14134, asid=0): hit ppn 0x9b632
621351134500: system.switch_cpus.mmu.itb: translate(vpn=0x14134, asid=0): 0x9b632134
621351135000: system.switch_cpus.mmu.itb: lookup(vpn=0x114d4, asid=0): miss ppn 0
621351135000: system.switch_cpus.mmu.itb.walker: Performing table walk for address 0x114d4
621351135000: system.switch_cpus.mmu.itb.walker: Loading level2 PTE from 0x81e57000
621351135000: system.switch_cpus.mmu.itb.walker: Got level2 PTE: 0x20794001
621351135000: system.switch_cpus.mmu.itb.walker: Loading level1 PTE from 0x81e50000
621351135000: system.switch_cpus.mmu.itb.walker: Got level1 PTE: 0x2079ec01
621351135000: system.switch_cpus.mmu.itb.walker: Loading level0 PTE from 0x81e7b088
621351135000: system.switch_cpus.mmu.itb.walker: Got level0 PTE: 0x2047845b
621351135000: system.switch_cpus.mmu.itb: insert(vpn=0x11000, asid=0): ppn=0x811e1 pte=0x2047845b size=0x1000
621351135000: system.switch_cpus.mmu.itb: translate(vpn=0x114d4, asid=0): 0x811e14d4
621351135500: system.switch_cpus.mmu.itb: lookup(vpn=0x114d8, asid=0): hit ppn 0x811e1
621351135500: system.switch_cpus.mmu.itb: translate(vpn=0x114d8, asid=0): 0x811e14d8
621351135500: system.switch_cpus.mmu.dtb: lookup(vpn=0x7f560, asid=0): hit ppn 0x9b63a
621351135500: system.switch_cpus.mmu.dtb: translate(vpn=0x7f560, asid=0): 0x9b63a560
621351136000: system.switch_cpus.mmu.itb: lookup(vpn=0x114dc, asid=0): hit ppn 0x811e1
621351136000: system.switch_cpus.mmu.itb: translate(vpn=0x114dc, asid=0): 0x811e14dc
621351136500: system.switch_cpus.mmu.itb: lookup(vpn=0x114dc, asid=0): hit ppn 0x811e1
621351136500: system.switch_cpus.mmu.itb: translate(vpn=0x114dc, asid=0): 0x811e14dc
621351137000: system.switch_cpus.mmu.itb: lookup(vpn=0x14134, asid=0): hit ppn 0x9b632
621351137000: system.switch_cpus.mmu.itb: translate(vpn=0x14134, asid=0): 0x9b632134
621351137500: system.switch_cpus.mmu.itb: lookup(vpn=0x13f7c, asid=0): hit ppn 0x9b603
621351137500: system.switch_cpus.mmu.itb: translate(vpn=0x13f7c, asid=0): 0x9b603f7c
621351137500: system.switch_cpus.mmu.dtb: lookup(vpn=0x3fffe94b40, asid=0): hit ppn 0x811eb
621351137500: system.switch_cpus.mmu.dtb: translate(vpn=0x3fffe94b40, asid=0): 0x811ebb40
621351138000: system.switch_cpus.mmu.itb: lookup(vpn=0x13f80, asid=0): hit ppn 0x9b603
621351138000: system.switch_cpus.mmu.itb: translate(vpn=0x13f80, asid=0): 0x9b603f80
621351138000: system.switch_cpus.mmu.dtb: lookup(vpn=0x3fffe94b38, asid=0): hit ppn 0x811eb
621351138000: system.switch_cpus.mmu.dtb: translate(vpn=0x3fffe94b38, asid=0): 0x811ebb38
621351138500: system.switch_cpus.mmu.itb: lookup(vpn=0x13f80, asid=0): hit ppn 0x9b603
621351138500: system.switch_cpus.mmu.itb: translate(vpn=0x13f80, asid=0): 0x9b603f80
621351138500: system.switch_cpus.mmu.dtb: lookup(vpn=0x3fffe94b30, asid=0): hit ppn 0x811eb
621351138500: system.switch_cpus.mmu.dtb: translate(vpn=0x3fffe94b30, asid=0): 0x811ebb30
621351139000: system.switch_cpus.mmu.itb: lookup(vpn=0x13f84, asid=0): hit ppn 0x9b603
621351139000: system.switch_cpus.mmu.itb: translate(vpn=0x13f84, asid=0): 0x9b603f84
621351139000: system.switch_cpus.mmu.dtb: lookup(vpn=0x3fffe94b28, asid=0): hit ppn 0x811eb
621351139000: system.switch_cpus.mmu.dtb: translate(vpn=0x3fffe94b28, asid=0): 0x811ebb28
621351139500: system.switch_cpus.mmu.itb: lookup(vpn=0x13f84, asid=0): hit ppn 0x9b603
621351139500: system.switch_cpus.mmu.itb: translate(vpn=0x13f84, asid=0): 0x9b603f84
621351139500: system.switch_cpus.mmu.dtb: lookup(vpn=0x3fffe94b20, asid=0): hit ppn 0x811eb
621351139500: system.switch_cpus.mmu.dtb: translate(vpn=0x3fffe94b20, asid=0): 0x811ebb20
621351140000: system.switch_cpus.mmu.itb: lookup(vpn=0x13f88, asid=0): hit ppn 0x9b603
621351140000: system.switch_cpus.mmu.itb: translate(vpn=0x13f88, asid=0): 0x9b603f88
621351140000: system.switch_cpus.mmu.dtb: lookup(vpn=0x3fffe94b18, asid=0): hit ppn 0x811eb
621351140000: system.switch_cpus.mmu.dtb: translate(vpn=0x3fffe94b18, asid=0): 0x811ebb18
621351140500: system.switch_cpus.mmu.itb: lookup(vpn=0x13f88, asid=0): hit ppn 0x9b603
621351140500: system.switch_cpus.mmu.itb: translate(vpn=0x13f88, asid=0): 0x9b603f88
621351140500: system.switch_cpus.mmu.dtb: lookup(vpn=0x3fffe94b10, asid=0): hit ppn 0x811eb
621351140500: system.switch_cpus.mmu.dtb: translate(vpn=0x3fffe94b10, asid=0): 0x811ebb10
621351141000: system.switch_cpus.mmu.itb: lookup(vpn=0x13f8c, asid=0): hit ppn 0x9b603
621351141000: system.switch_cpus.mmu.itb: translate(vpn=0x13f8c, asid=0): 0x9b603f8c
621351141000: system.switch_cpus.mmu.dtb: lookup(vpn=0x3fffe94b08, asid=0): hit ppn 0x811eb
621351141000: system.switch_cpus.mmu.dtb: translate(vpn=0x3fffe94b08, asid=0): 0x811ebb08
621351141500: system.switch_cpus.mmu.itb: lookup(vpn=0x13f8c, asid=0): hit ppn 0x9b603
621351141500: system.switch_cpus.mmu.itb: translate(vpn=0x13f8c, asid=0): 0x9b603f8c
621351141500: system.switch_cpus.mmu.dtb: lookup(vpn=0x3fffe94b00, asid=0): hit ppn 0x811eb
621351141500: system.switch_cpus.mmu.dtb: translate(vpn=0x3fffe94b00, asid=0): 0x811ebb00
621351142000: system.switch_cpus.mmu.itb: lookup(vpn=0x13f90, asid=0): hit ppn 0x9b603
621351142000: system.switch_cpus.mmu.itb: translate(vpn=0x13f90, asid=0): 0x9b603f90
621351142000: system.switch_cpus.mmu.dtb: lookup(vpn=0x3fffe94af8, asid=0): hit ppn 0x811eb
621351142000: system.switch_cpus.mmu.dtb: translate(vpn=0x3fffe94af8, asid=0): 0x811ebaf8
621351142500: system.switch_cpus.mmu.itb: lookup(vpn=0x13f90, asid=0): hit ppn 0x9b603
621351142500: system.switch_cpus.mmu.itb: translate(vpn=0x13f90, asid=0): 0x9b603f90
621351142500: system.switch_cpus.mmu.dtb: lookup(vpn=0x3fffe94ae8, asid=0): hit ppn 0x811eb
621351142500: system.switch_cpus.mmu.dtb: translate(vpn=0x3fffe94ae8, asid=0): 0x811ebae8
621351143000: system.switch_cpus.mmu.itb: lookup(vpn=0x13f94, asid=0): hit ppn 0x9b603
621351143000: system.switch_cpus.mmu.itb: translate(vpn=0x13f94, asid=0): 0x9b603f94
621351143500: system.switch_cpus.mmu.itb: lookup(vpn=0x13910, asid=0): hit ppn 0x9b603
621351143500: system.switch_cpus.mmu.itb: translate(vpn=0x13910, asid=0): 0x9b603910
621351143500: system.switch_cpus.mmu.dtb: lookup(vpn=0x3fffe94b48, asid=0): hit ppn 0x811eb
621351143500: system.switch_cpus.mmu.dtb: translate(vpn=0x3fffe94b48, asid=0): 0x811ebb48
621351144000: system.switch_cpus.mmu.itb: lookup(vpn=0x13910, asid=0): hit ppn 0x9b603
621351144000: system.switch_cpus.mmu.itb: translate(vpn=0x13910, asid=0): 0x9b603910
621351144500: system.switch_cpus.mmu.itb: lookup(vpn=0x13914, asid=0): hit ppn 0x9b603
621351144500: system.switch_cpus.mmu.itb: translate(vpn=0x13914, asid=0): 0x9b603914
621351144500: system.switch_cpus.mmu.dtb: lookup(vpn=0x3fffe94af0, asid=0): hit ppn 0x811eb
621351144500: system.switch_cpus.mmu.dtb: translate(vpn=0x3fffe94af0, asid=0): 0x811ebaf0
621351145000: system.switch_cpus.mmu.itb: lookup(vpn=0x13914, asid=0): hit ppn 0x9b603
621351145000: system.switch_cpus.mmu.itb: translate(vpn=0x13914, asid=0): 0x9b603914
621351145500: system.switch_cpus.mmu.itb: lookup(vpn=0x13918, asid=0): hit ppn 0x9b603
621351145500: system.switch_cpus.mmu.itb: translate(vpn=0x13918, asid=0): 0x9b603918
621351146000: system.switch_cpus.mmu.itb: lookup(vpn=0x1494c, asid=0): hit ppn 0x9b632
621351146000: system.switch_cpus.mmu.itb: translate(vpn=0x1494c, asid=0): 0x9b63294c
621351146500: system.switch_cpus.mmu.itb: lookup(vpn=0x1494c, asid=0): hit ppn 0x9b632
621351146500: system.switch_cpus.mmu.itb: translate(vpn=0x1494c, asid=0): 0x9b63294c
621351147000: system.switch_cpus.mmu.itb: lookup(vpn=0x14950, asid=0): hit ppn 0x9b632
621351147000: system.switch_cpus.mmu.itb: translate(vpn=0x14950, asid=0): 0x9b632950
621351147000: system.switch_cpus.mmu.dtb: lookup(vpn=0x814b8, asid=0): hit ppn 0x9b687
621351147000: system.switch_cpus.mmu.dtb: translate(vpn=0x814b8, asid=0): 0x9b6874b8
621351147500: system.switch_cpus.mmu.itb: lookup(vpn=0x14954, asid=0): hit ppn 0x9b632
621351147500: system.switch_cpus.mmu.itb: translate(vpn=0x14954, asid=0): 0x9b632954
621351148000: system.switch_cpus.mmu.itb: lookup(vpn=0x14958, asid=0): hit ppn 0x9b632
621351148000: system.switch_cpus.mmu.itb: translate(vpn=0x14958, asid=0): 0x9b632958
621351148500: system.switch_cpus.mmu.itb: lookup(vpn=0x14958, asid=0): hit ppn 0x9b632
621351148500: system.switch_cpus.mmu.itb: translate(vpn=0x14958, asid=0): 0x9b632958
621351149000: system.switch_cpus.mmu.itb: lookup(vpn=0x1495c, asid=0): hit ppn 0x9b632
621351149000: system.switch_cpus.mmu.itb: translate(vpn=0x1495c, asid=0): 0x9b63295c
621351149500: system.switch_cpus.mmu.itb: lookup(vpn=0x148b4, asid=0): hit ppn 0x9b632
621351149500: system.switch_cpus.mmu.itb: translate(vpn=0x148b4, asid=0): 0x9b6328b4
621351149500: system.switch_cpus.mmu.dtb: lookup(vpn=0x3fffe94b68, asid=0): hit ppn 0x811eb
621351149500: system.switch_cpus.mmu.dtb: translate(vpn=0x3fffe94b68, asid=0): 0x811ebb68
621351150000: system.switch_cpus.mmu.itb: lookup(vpn=0x148b8, asid=0): hit ppn 0x9b632
621351150000: system.switch_cpus.mmu.itb: translate(vpn=0x148b8, asid=0): 0x9b6328b8
621351150500: system.switch_cpus.mmu.itb: lookup(vpn=0x148b8, asid=0): hit ppn 0x9b632
621351150500: system.switch_cpus.mmu.itb: translate(vpn=0x148b8, asid=0): 0x9b6328b8
621351150500: system.switch_cpus.mmu.dtb: lookup(vpn=0x3fffe94b60, asid=0): hit ppn 0x811eb
621351150500: system.switch_cpus.mmu.dtb: translate(vpn=0x3fffe94b60, asid=0): 0x811ebb60
621351151000: system.switch_cpus.mmu.itb: lookup(vpn=0x148bc, asid=0): hit ppn 0x9b632
621351151000: system.switch_cpus.mmu.itb: translate(vpn=0x148bc, asid=0): 0x9b6328bc
621351151000: system.switch_cpus.mmu.dtb: lookup(vpn=0x3fffe94b50, asid=0): hit ppn 0x811eb
621351151000: system.switch_cpus.mmu.dtb: translate(vpn=0x3fffe94b50, asid=0): 0x811ebb50
621351151500: system.switch_cpus.mmu.itb: lookup(vpn=0x148bc, asid=0): hit ppn 0x9b632
621351151500: system.switch_cpus.mmu.itb: translate(vpn=0x148bc, asid=0): 0x9b6328bc
621351151500: system.switch_cpus.mmu.dtb: lookup(vpn=0x3fffe94b58, asid=0): hit ppn 0x811eb
621351151500: system.switch_cpus.mmu.dtb: translate(vpn=0x3fffe94b58, asid=0): 0x811ebb58
621351152000: system.switch_cpus.mmu.itb: lookup(vpn=0x148c0, asid=0): hit ppn 0x9b632
621351152000: system.switch_cpus.mmu.itb: translate(vpn=0x148c0, asid=0): 0x9b6328c0
621351152500: system.switch_cpus.mmu.itb: lookup(vpn=0x148c0, asid=0): hit ppn 0x9b632
621351152500: system.switch_cpus.mmu.itb: translate(vpn=0x148c0, asid=0): 0x9b6328c0
621351153000: system.switch_cpus.mmu.itb: lookup(vpn=0x1051c, asid=0): hit ppn 0x9b77f
621351153000: system.switch_cpus.mmu.itb: translate(vpn=0x1051c, asid=0): 0x9b77f51c
621351153500: system.switch_cpus.mmu.itb: lookup(vpn=0x10520, asid=0): hit ppn 0x9b77f
621351153500: system.switch_cpus.mmu.itb: translate(vpn=0x10520, asid=0): 0x9b77f520
621351153500: system.switch_cpus.mmu.dtb: lookup(vpn=0x3fffe94b78, asid=0): hit ppn 0x811eb
621351153500: system.switch_cpus.mmu.dtb: translate(vpn=0x3fffe94b78, asid=0): 0x811ebb78
621351154000: system.switch_cpus.mmu.itb: lookup(vpn=0x10524, asid=0): hit ppn 0x9b77f
621351154000: system.switch_cpus.mmu.itb: translate(vpn=0x10524, asid=0): 0x9b77f524
621351154500: system.switch_cpus.mmu.itb: lookup(vpn=0x10524, asid=0): hit ppn 0x9b77f
621351154500: system.switch_cpus.mmu.itb: translate(vpn=0x10524, asid=0): 0x9b77f524
621351155000: system.switch_cpus.mmu.itb: lookup(vpn=0x10528, asid=0): hit ppn 0x9b77f
621351155000: system.switch_cpus.mmu.itb: translate(vpn=0x10528, asid=0): 0x9b77f528
621351155500: system.switch_cpus.mmu.itb: lookup(vpn=0x1052c, asid=0): hit ppn 0x9b77f
621351155500: system.switch_cpus.mmu.itb: translate(vpn=0x1052c, asid=0): 0x9b77f52c
621351156000: system.switch_cpus.mmu.itb: lookup(vpn=0x1052c, asid=0): hit ppn 0x9b77f
621351156000: system.switch_cpus.mmu.itb: translate(vpn=0x1052c, asid=0): 0x9b77f52c
621351156500: system.switch_cpus.mmu.itb: lookup(vpn=0x10530, asid=0): hit ppn 0x9b77f
621351156500: system.switch_cpus.mmu.itb: translate(vpn=0x10530, asid=0): 0x9b77f530
621351157000: system.switch_cpus.mmu.itb: lookup(vpn=0x10530, asid=0): hit ppn 0x9b77f
621351157000: system.switch_cpus.mmu.itb: translate(vpn=0x10530, asid=0): 0x9b77f530
621351157500: system.switch_cpus.mmu.itb: lookup(vpn=0x10534, asid=0): hit ppn 0x9b77f
621351157500: system.switch_cpus.mmu.itb: translate(vpn=0x10534, asid=0): 0x9b77f534
621351158000: system.switch_cpus.mmu.itb: lookup(vpn=0x16c2c, asid=0): miss ppn 0
621351158000: system.switch_cpus.mmu.itb.walker: Performing table walk for address 0x16c2c
621351158000: system.switch_cpus.mmu.itb.walker: Loading level2 PTE from 0x81e57000
621351158000: system.switch_cpus.mmu.itb.walker: Got level2 PTE: 0x20794001
621351158000: system.switch_cpus.mmu.itb.walker: Loading level1 PTE from 0x81e50000
621351158000: system.switch_cpus.mmu.itb.walker: Got level1 PTE: 0x2079ec01
621351158000: system.switch_cpus.mmu.itb.walker: Loading level0 PTE from 0x81e7b0b0
621351158000: system.switch_cpus.mmu.itb.walker: Got level0 PTE: 0x26d9105b
621351158000: system.switch_cpus.mmu.itb: insert(vpn=0x16000, asid=0): ppn=0x9b644 pte=0x26d9105b size=0x1000
621351158000: system.switch_cpus.mmu.itb: translate(vpn=0x16c2c, asid=0): 0x9b644c2c
621351158500: system.switch_cpus.mmu.itb: lookup(vpn=0x16c30, asid=0): hit ppn 0x9b644
621351158500: system.switch_cpus.mmu.itb: translate(vpn=0x16c30, asid=0): 0x9b644c30
621351159000: system.switch_cpus.mmu.itb: lookup(vpn=0x16c34, asid=0): hit ppn 0x9b644
621351159000: system.switch_cpus.mmu.itb: translate(vpn=0x16c34, asid=0): 0x9b644c34
621351159500: system.switch_cpus.mmu.itb: lookup(vpn=0x16c38, asid=0): hit ppn 0x9b644
621351159500: system.switch_cpus.mmu.itb: translate(vpn=0x16c38, asid=0): 0x9b644c38
621351160000: system.switch_cpus.mmu.itb: lookup(vpn=0xffffffe0002011a4, asid=0): miss ppn 0
621351160000: system.switch_cpus.mmu.itb.walker: Performing table walk for address 0xffffffe0002011a4
621351160000: system.switch_cpus.mmu.itb.walker: Loading level2 PTE from 0x81e57c00
621351160000: system.switch_cpus.mmu.itb.walker: Got level2 PTE: 0x27fffc01
621351160000: system.switch_cpus.mmu.itb.walker: Loading level1 PTE from 0x9ffff008
621351160000: system.switch_cpus.mmu.itb.walker: Got level1 PTE: 0x201000cb
621351160000: system.switch_cpus.mmu.itb: insert(vpn=0xffffffe000200000, asid=0): ppn=0x80400 pte=0x201000cb size=0x200000
621351160000: system.switch_cpus.mmu.itb: translate(vpn=0xffffffe0002011a4, asid=0): 0x804011a4
621351160500: system.switch_cpus.mmu.itb: lookup(vpn=0xffffffe0002011a8, asid=0): hit ppn 0x80400
621351160500: system.switch_cpus.mmu.itb: translate(vpn=0xffffffe0002011a8, asid=0): 0x804011a8
621351161000: system.switch_cpus.mmu.itb: lookup(vpn=0xffffffe0002011b4, asid=0): hit ppn 0x80400
621351161000: system.switch_cpus.mmu.itb: translate(vpn=0xffffffe0002011b4, asid=0): 0x804011b4
621351161000: system.switch_cpus.mmu.dtb: lookup(vpn=0xffffffe001c98018, asid=0): miss ppn 0
621351161000: system.switch_cpus.mmu.dtb.walker: Performing table walk for address 0xffffffe001c98018
621351161000: system.switch_cpus.mmu.dtb.walker: Loading level2 PTE from 0x81e57c00
621351161000: system.switch_cpus.mmu.dtb.walker: Got level2 PTE: 0x27fffc01
621351161000: system.switch_cpus.mmu.dtb.walker: Loading level1 PTE from 0x9ffff070
621351161000: system.switch_cpus.mmu.dtb.walker: Got level1 PTE: 0x207800c7
621351161000: system.switch_cpus.mmu.dtb: insert(vpn=0xffffffe001c00000, asid=0): ppn=0x81e00 pte=0x207800c7 size=0x200000
621351161000: system.switch_cpus.mmu.dtb: translate(vpn=0xffffffe001c98018, asid=0): 0x81e98018
621351161500: system.switch_cpus.mmu.itb: lookup(vpn=0xffffffe0002011b8, asid=0): hit ppn 0x80400
621351161500: system.switch_cpus.mmu.itb: translate(vpn=0xffffffe0002011b8, asid=0): 0x804011b8
621351161500: system.switch_cpus.mmu.dtb: lookup(vpn=0xffffffe001c98010, asid=0): hit ppn 0x81e00
621351161500: system.switch_cpus.mmu.dtb: translate(vpn=0xffffffe001c98010, asid=0): 0x81e98010
621351162000: system.switch_cpus.mmu.itb: lookup(vpn=0xffffffe0002011bc, asid=0): hit ppn 0x80400
621351162000: system.switch_cpus.mmu.itb: translate(vpn=0xffffffe0002011bc, asid=0): 0x804011bc
621351162500: system.switch_cpus.mmu.itb: lookup(vpn=0xffffffe0002011bc, asid=0): hit ppn 0x80400
621351162500: system.switch_cpus.mmu.itb: translate(vpn=0xffffffe0002011bc, asid=0): 0x804011bc
621351162500: system.switch_cpus.mmu.dtb: lookup(vpn=0xffffffe001c13ee8, asid=0): hit ppn 0x81e00
621351162500: system.switch_cpus.mmu.dtb: translate(vpn=0xffffffe001c13ee8, asid=0): 0x81e13ee8
621351163000: system.switch_cpus.mmu.itb: lookup(vpn=0xffffffe0002011c0, asid=0): hit ppn 0x80400
621351163000: system.switch_cpus.mmu.itb: translate(vpn=0xffffffe0002011c0, asid=0): 0x804011c0
621351163000: system.switch_cpus.mmu.dtb: lookup(vpn=0xffffffe001c13ef8, asid=0): hit ppn 0x81e00
621351163000: system.switch_cpus.mmu.dtb: translate(vpn=0xffffffe001c13ef8, asid=0): 0x81e13ef8
621351163500: system.switch_cpus.mmu.itb: lookup(vpn=0xffffffe0002011c0, asid=0): hit ppn 0x80400
621351163500: system.switch_cpus.mmu.itb: translate(vpn=0xffffffe0002011c0, asid=0): 0x804011c0
621351163500: system.switch_cpus.mmu.dtb: lookup(vpn=0xffffffe001c13f08, asid=0): hit ppn 0x81e00
621351163500: system.switch_cpus.mmu.dtb: translate(vpn=0xffffffe001c13f08, asid=0): 0x81e13f08
621351164000: system.switch_cpus.mmu.itb: lookup(vpn=0xffffffe0002011c4, asid=0): hit ppn 0x80400
621351164000: system.switch_cpus.mmu.itb: translate(vpn=0xffffffe0002011c4, asid=0): 0x804011c4
621351164000: system.switch_cpus.mmu.dtb: lookup(vpn=0xffffffe001c13f10, asid=0): hit ppn 0x81e00
621351164000: system.switch_cpus.mmu.dtb: translate(vpn=0xffffffe001c13f10, asid=0): 0x81e13f10
621351164500: system.switch_cpus.mmu.itb: lookup(vpn=0xffffffe0002011c4, asid=0): hit ppn 0x80400
621351164500: system.switch_cpus.mmu.itb: translate(vpn=0xffffffe0002011c4, asid=0): 0x804011c4
621351164500: system.switch_cpus.mmu.dtb: lookup(vpn=0xffffffe001c13f18, asid=0): hit ppn 0x81e00
621351164500: system.switch_cpus.mmu.dtb: translate(vpn=0xffffffe001c13f18, asid=0): 0x81e13f18
621351165000: system.switch_cpus.mmu.itb: lookup(vpn=0xffffffe0002011c8, asid=0): hit ppn 0x80400
621351165000: system.switch_cpus.mmu.itb: translate(vpn=0xffffffe0002011c8, asid=0): 0x804011c8
621351165000: system.switch_cpus.mmu.dtb: lookup(vpn=0xffffffe001c13f20, asid=0): hit ppn 0x81e00
621351165000: system.switch_cpus.mmu.dtb: translate(vpn=0xffffffe001c13f20, asid=0): 0x81e13f20
621351165500: system.switch_cpus.mmu.itb: lookup(vpn=0xffffffe0002011c8, asid=0): hit ppn 0x80400
621351165500: system.switch_cpus.mmu.itb: translate(vpn=0xffffffe0002011c8, asid=0): 0x804011c8
621351165500: system.switch_cpus.mmu.dtb: lookup(vpn=0xffffffe001c13f28, asid=0): hit ppn 0x81e00
621351165500: system.switch_cpus.mmu.dtb: translate(vpn=0xffffffe001c13f28, asid=0): 0x81e13f28
621351166000: system.switch_cpus.mmu.itb: lookup(vpn=0xffffffe0002011cc, asid=0): hit ppn 0x80400
621351166000: system.switch_cpus.mmu.itb: translate(vpn=0xffffffe0002011cc, asid=0): 0x804011cc
621351166000: system.switch_cpus.mmu.dtb: lookup(vpn=0xffffffe001c13f30, asid=0): hit ppn 0x81e00
621351166000: system.switch_cpus.mmu.dtb: translate(vpn=0xffffffe001c13f30, asid=0): 0x81e13f30
621351166500: system.switch_cpus.mmu.itb: lookup(vpn=0xffffffe0002011cc, asid=0): hit ppn 0x80400
621351166500: system.switch_cpus.mmu.itb: translate(vpn=0xffffffe0002011cc, asid=0): 0x804011cc
621351166500: system.switch_cpus.mmu.dtb: lookup(vpn=0xffffffe001c13f38, asid=0): hit ppn 0x81e00
621351166500: system.switch_cpus.mmu.dtb: translate(vpn=0xffffffe001c13f38, asid=0): 0x81e13f38
621351167000: system.switch_cpus.mmu.itb: lookup(vpn=0xffffffe0002011d0, asid=0): hit ppn 0x80400
621351167000: system.switch_cpus.mmu.itb: translate(vpn=0xffffffe0002011d0, asid=0): 0x804011d0
621351167000: system.switch_cpus.mmu.dtb: lookup(vpn=0xffffffe001c13f40, asid=0): hit ppn 0x81e00
621351167000: system.switch_cpus.mmu.dtb: translate(vpn=0xffffffe001c13f40, asid=0): 0x81e13f40
621351167500: system.switch_cpus.mmu.itb: lookup(vpn=0xffffffe0002011d0, asid=0): hit ppn 0x80400
621351167500: system.switch_cpus.mmu.itb: translate(vpn=0xffffffe0002011d0, asid=0): 0x804011d0
621351167500: system.switch_cpus.mmu.dtb: lookup(vpn=0xffffffe001c13f48, asid=0): hit ppn 0x81e00
621351167500: system.switch_cpus.mmu.dtb: translate(vpn=0xffffffe001c13f48, asid=0): 0x81e13f48
621351168000: system.switch_cpus.mmu.itb: lookup(vpn=0xffffffe0002011d4, asid=0): hit ppn 0x80400
621351168000: system.switch_cpus.mmu.itb: translate(vpn=0xffffffe0002011d4, asid=0): 0x804011d4
621351168000: system.switch_cpus.mmu.dtb: lookup(vpn=0xffffffe001c13f50, asid=0): hit ppn 0x81e00
621351168000: system.switch_cpus.mmu.dtb: translate(vpn=0xffffffe001c13f50, asid=0): 0x81e13f50
621351168500: system.switch_cpus.mmu.itb: lookup(vpn=0xffffffe0002011d4, asid=0): hit ppn 0x80400
621351168500: system.switch_cpus.mmu.itb: translate(vpn=0xffffffe0002011d4, asid=0): 0x804011d4
621351168500: system.switch_cpus.mmu.dtb: lookup(vpn=0xffffffe001c13f58, asid=0): hit ppn 0x81e00
621351168500: system.switch_cpus.mmu.dtb: translate(vpn=0xffffffe001c13f58, asid=0): 0x81e13f58
621351169000: system.switch_cpus.mmu.itb: lookup(vpn=0xffffffe0002011d8, asid=0): hit ppn 0x80400
621351169000: system.switch_cpus.mmu.itb: translate(vpn=0xffffffe0002011d8, asid=0): 0x804011d8
621351169000: system.switch_cpus.mmu.dtb: lookup(vpn=0xffffffe001c13f60, asid=0): hit ppn 0x81e00
621351169000: system.switch_cpus.mmu.dtb: translate(vpn=0xffffffe001c13f60, asid=0): 0x81e13f60
621351169500: system.switch_cpus.mmu.itb: lookup(vpn=0xffffffe0002011d8, asid=0): hit ppn 0x80400
621351169500: system.switch_cpus.mmu.itb: translate(vpn=0xffffffe0002011d8, asid=0): 0x804011d8
621351169500: system.switch_cpus.mmu.dtb: lookup(vpn=0xffffffe001c13f68, asid=0): hit ppn 0x81e00
621351169500: system.switch_cpus.mmu.dtb: translate(vpn=0xffffffe001c13f68, asid=0): 0x81e13f68
621351170000: system.switch_cpus.mmu.itb: lookup(vpn=0xffffffe0002011dc, asid=0): hit ppn 0x80400
621351170000: system.switch_cpus.mmu.itb: translate(vpn=0xffffffe0002011dc, asid=0): 0x804011dc
621351170000: system.switch_cpus.mmu.dtb: lookup(vpn=0xffffffe001c13f70, asid=0): hit ppn 0x81e00
621351170000: system.switch_cpus.mmu.dtb: translate(vpn=0xffffffe001c13f70, asid=0): 0x81e13f70
621351170500: system.switch_cpus.mmu.itb: lookup(vpn=0xffffffe0002011dc, asid=0): hit ppn 0x80400
621351170500: system.switch_cpus.mmu.itb: translate(vpn=0xffffffe0002011dc, asid=0): 0x804011dc
621351170500: system.switch_cpus.mmu.dtb: lookup(vpn=0xffffffe001c13f78, asid=0): hit ppn 0x81e00
621351170500: system.switch_cpus.mmu.dtb: translate(vpn=0xffffffe001c13f78, asid=0): 0x81e13f78
621351171000: system.switch_cpus.mmu.itb: lookup(vpn=0xffffffe0002011e0, asid=0): hit ppn 0x80400
621351171000: system.switch_cpus.mmu.itb: translate(vpn=0xffffffe0002011e0, asid=0): 0x804011e0
621351171000: system.switch_cpus.mmu.dtb: lookup(vpn=0xffffffe001c13f80, asid=0): hit ppn 0x81e00
621351171000: system.switch_cpus.mmu.dtb: translate(vpn=0xffffffe001c13f80, asid=0): 0x81e13f80
621351171500: system.switch_cpus.mmu.itb: lookup(vpn=0xffffffe0002011e0, asid=0): hit ppn 0x80400
621351171500: system.switch_cpus.mmu.itb: translate(vpn=0xffffffe0002011e0, asid=0): 0x804011e0
621351171500: system.switch_cpus.mmu.dtb: lookup(vpn=0xffffffe001c13f88, asid=0): hit ppn 0x81e00
621351171500: system.switch_cpus.mmu.dtb: translate(vpn=0xffffffe001c13f88, asid=0): 0x81e13f88
621351172000: system.switch_cpus.mmu.itb: lookup(vpn=0xffffffe0002011e4, asid=0): hit ppn 0x80400
621351172000: system.switch_cpus.mmu.itb: translate(vpn=0xffffffe0002011e4, asid=0): 0x804011e4
621351172000: system.switch_cpus.mmu.dtb: lookup(vpn=0xffffffe001c13f90, asid=0): hit ppn 0x81e00
621351172000: system.switch_cpus.mmu.dtb: translate(vpn=0xffffffe001c13f90, asid=0): 0x81e13f90
621351172500: system.switch_cpus.mmu.itb: lookup(vpn=0xffffffe0002011e4, asid=0): hit ppn 0x80400
621351172500: system.switch_cpus.mmu.itb: translate(vpn=0xffffffe0002011e4, asid=0): 0x804011e4
[...]
621353041000: system.switch_cpus.mmu.itb: translate(vpn=0xffffffe0002012dc, asid=0): 0x804012dc
621353041500: system.switch_cpus.mmu.itb: lookup(vpn=0xffffffe0002012dc, asid=0): hit ppn 0x80400
621353041500: system.switch_cpus.mmu.itb: translate(vpn=0xffffffe0002012dc, asid=0): 0x804012dc
621353042000: system.switch_cpus.mmu.itb: lookup(vpn=0xffffffe0002012e0, asid=0): hit ppn 0x80400
621353042000: system.switch_cpus.mmu.itb: translate(vpn=0xffffffe0002012e0, asid=0): 0x804012e0
621353042000: system.switch_cpus.mmu.dtb: lookup(vpn=0xffffffe001c98000, asid=0): hit ppn 0x81e00
621353042000: system.switch_cpus.mmu.dtb: translate(vpn=0xffffffe001c98000, asid=0): 0x81e98000
621353042500: system.switch_cpus.mmu.itb: lookup(vpn=0xffffffe0002012e0, asid=0): hit ppn 0x80400
621353042500: system.switch_cpus.mmu.itb: translate(vpn=0xffffffe0002012e0, asid=0): 0x804012e0
621353043000: system.switch_cpus.mmu.itb: lookup(vpn=0xffffffe0002012e4, asid=0): hit ppn 0x80400
621353043000: system.switch_cpus.mmu.itb: translate(vpn=0xffffffe0002012e4, asid=0): 0x804012e4
621353043500: system.switch_cpus.mmu.itb: lookup(vpn=0xffffffe0002012e4, asid=0): hit ppn 0x80400
621353043500: system.switch_cpus.mmu.itb: translate(vpn=0xffffffe0002012e4, asid=0): 0x804012e4
621353044000: system.switch_cpus.mmu.itb: lookup(vpn=0xffffffe0002012e8, asid=0): hit ppn 0x80400
621353044000: system.switch_cpus.mmu.itb: translate(vpn=0xffffffe0002012e8, asid=0): 0x804012e8
621353044500: system.switch_cpus.mmu.itb: lookup(vpn=0xffffffe0002012e8, asid=0): hit ppn 0x80400
621353044500: system.switch_cpus.mmu.itb: translate(vpn=0xffffffe0002012e8, asid=0): 0x804012e8
621353045000: system.switch_cpus.mmu.itb: lookup(vpn=0xffffffe0002012ec, asid=0): hit ppn 0x80400
621353045000: system.switch_cpus.mmu.itb: translate(vpn=0xffffffe0002012ec, asid=0): 0x804012ec
621353045000: system.switch_cpus.mmu.dtb: lookup(vpn=0xffffffe001c98010, asid=0): hit ppn 0x81e00
621353045000: system.switch_cpus.mmu.dtb: translate(vpn=0xffffffe001c98010, asid=0): 0x81e98010
621353045500: system.switch_cpus.mmu.itb: lookup(vpn=0xffffffe0002012ec, asid=0): hit ppn 0x80400
621353045500: system.switch_cpus.mmu.itb: translate(vpn=0xffffffe0002012ec, asid=0): 0x804012ec
621353046000: system.switch_cpus.mmu.itb: lookup(vpn=0xffffffe0002012f0, asid=0): hit ppn 0x80400
621353046000: system.switch_cpus.mmu.itb: translate(vpn=0xffffffe0002012f0, asid=0): 0x804012f0
621353046500: system.switch_cpus.mmu.itb: lookup(vpn=0xffffffe0002012f0, asid=0): hit ppn 0x80400
621353046500: system.switch_cpus.mmu.itb: translate(vpn=0xffffffe0002012f0, asid=0): 0x804012f0
621353046500: system.switch_cpus.mmu.dtb: lookup(vpn=0xffffffe001c13fe0, asid=0): hit ppn 0x81e00
621353046500: system.switch_cpus.mmu.dtb: translate(vpn=0xffffffe001c13fe0, asid=0): 0x81e13fe0
621353047000: system.switch_cpus.mmu.itb: lookup(vpn=0xffffffe0002012f4, asid=0): hit ppn 0x80400
621353047000: system.switch_cpus.mmu.itb: translate(vpn=0xffffffe0002012f4, asid=0): 0x804012f4
621353047000: system.switch_cpus.mmu.dtb: lookup(vpn=0xffffffe001c13ee0, asid=0): hit ppn 0x81e00
621353047000: system.switch_cpus.mmu.dtb: translate(vpn=0xffffffe001c13ee0, asid=0): 0x81e13ee0
621353047500: system.switch_cpus.mmu.itb: lookup(vpn=0xffffffe0002012f4, asid=0): hit ppn 0x80400
621353047500: system.switch_cpus.mmu.itb: translate(vpn=0xffffffe0002012f4, asid=0): 0x804012f4
621353048000: system.switch_cpus.mmu.itb: lookup(vpn=0xffffffe0002012f8, asid=0): hit ppn 0x80400
621353048000: system.switch_cpus.mmu.itb: translate(vpn=0xffffffe0002012f8, asid=0): 0x804012f8
621353048000: system.switch_cpus.mmu.dtb: lookup(vpn=0xffffffe001c13ee0, asid=0): hit ppn 0x81e00
621353048000: system.switch_cpus.mmu.dtb: translate(vpn=0xffffffe001c13ee0, asid=0): 0x81e13ee0
621353048500: system.switch_cpus.mmu.itb: lookup(vpn=0xffffffe0002012f8, asid=0): hit ppn 0x80400
621353048500: system.switch_cpus.mmu.itb: translate(vpn=0xffffffe0002012f8, asid=0): 0x804012f8
621353049000: system.switch_cpus.mmu.itb: lookup(vpn=0xffffffe0002012fc, asid=0): hit ppn 0x80400
621353049000: system.switch_cpus.mmu.itb: translate(vpn=0xffffffe0002012fc, asid=0): 0x804012fc
621353049500: system.switch_cpus.mmu.itb: lookup(vpn=0xffffffe0002012fc, asid=0): hit ppn 0x80400
621353049500: system.switch_cpus.mmu.itb: translate(vpn=0xffffffe0002012fc, asid=0): 0x804012fc
621353050000: system.switch_cpus.mmu.itb: lookup(vpn=0xffffffe000201300, asid=0): hit ppn 0x80400
621353050000: system.switch_cpus.mmu.itb: translate(vpn=0xffffffe000201300, asid=0): 0x80401300
621353050500: system.switch_cpus.mmu.itb: lookup(vpn=0xffffffe000201300, asid=0): hit ppn 0x80400
621353050500: system.switch_cpus.mmu.itb: translate(vpn=0xffffffe000201300, asid=0): 0x80401300
621353050500: system.switch_cpus.mmu.dtb: lookup(vpn=0xffffffe001c13ee8, asid=0): hit ppn 0x81e00
621353050500: system.switch_cpus.mmu.dtb: translate(vpn=0xffffffe001c13ee8, asid=0): 0x81e13ee8
621353051000: system.switch_cpus.mmu.itb: lookup(vpn=0xffffffe000201304, asid=0): hit ppn 0x80400
621353051000: system.switch_cpus.mmu.itb: translate(vpn=0xffffffe000201304, asid=0): 0x80401304
621353051000: system.switch_cpus.mmu.dtb: lookup(vpn=0xffffffe001c13ef8, asid=0): hit ppn 0x81e00
621353051000: system.switch_cpus.mmu.dtb: translate(vpn=0xffffffe001c13ef8, asid=0): 0x81e13ef8
621353051500: system.switch_cpus.mmu.itb: lookup(vpn=0xffffffe000201304, asid=0): hit ppn 0x80400
621353051500: system.switch_cpus.mmu.itb: translate(vpn=0xffffffe000201304, asid=0): 0x80401304
621353051500: system.switch_cpus.mmu.dtb: lookup(vpn=0xffffffe001c13f00, asid=0): hit ppn 0x81e00
621353051500: system.switch_cpus.mmu.dtb: translate(vpn=0xffffffe001c13f00, asid=0): 0x81e13f00
621353052000: system.switch_cpus.mmu.itb: lookup(vpn=0xffffffe000201308, asid=0): hit ppn 0x80400
621353052000: system.switch_cpus.mmu.itb: translate(vpn=0xffffffe000201308, asid=0): 0x80401308
621353052000: system.switch_cpus.mmu.dtb: lookup(vpn=0xffffffe001c13f08, asid=0): hit ppn 0x81e00
621353052000: system.switch_cpus.mmu.dtb: translate(vpn=0xffffffe001c13f08, asid=0): 0x81e13f08
621353052500: system.switch_cpus.mmu.itb: lookup(vpn=0xffffffe000201308, asid=0): hit ppn 0x80400
621353052500: system.switch_cpus.mmu.itb: translate(vpn=0xffffffe000201308, asid=0): 0x80401308
621353052500: system.switch_cpus.mmu.dtb: lookup(vpn=0xffffffe001c13f10, asid=0): hit ppn 0x81e00
621353052500: system.switch_cpus.mmu.dtb: translate(vpn=0xffffffe001c13f10, asid=0): 0x81e13f10
621353053000: system.switch_cpus.mmu.itb: lookup(vpn=0xffffffe00020130c, asid=0): hit ppn 0x80400
621353053000: system.switch_cpus.mmu.itb: translate(vpn=0xffffffe00020130c, asid=0): 0x8040130c
621353053000: system.switch_cpus.mmu.dtb: lookup(vpn=0xffffffe001c13f18, asid=0): hit ppn 0x81e00
621353053000: system.switch_cpus.mmu.dtb: translate(vpn=0xffffffe001c13f18, asid=0): 0x81e13f18
621353053500: system.switch_cpus.mmu.itb: lookup(vpn=0xffffffe00020130c, asid=0): hit ppn 0x80400
621353053500: system.switch_cpus.mmu.itb: translate(vpn=0xffffffe00020130c, asid=0): 0x8040130c
621353053500: system.switch_cpus.mmu.dtb: lookup(vpn=0xffffffe001c13f20, asid=0): hit ppn 0x81e00
621353053500: system.switch_cpus.mmu.dtb: translate(vpn=0xffffffe001c13f20, asid=0): 0x81e13f20
621353054000: system.switch_cpus.mmu.itb: lookup(vpn=0xffffffe000201310, asid=0): hit ppn 0x80400
621353054000: system.switch_cpus.mmu.itb: translate(vpn=0xffffffe000201310, asid=0): 0x80401310
621353054000: system.switch_cpus.mmu.dtb: lookup(vpn=0xffffffe001c13f28, asid=0): hit ppn 0x81e00
621353054000: system.switch_cpus.mmu.dtb: translate(vpn=0xffffffe001c13f28, asid=0): 0x81e13f28
621353054500: system.switch_cpus.mmu.itb: lookup(vpn=0xffffffe000201310, asid=0): hit ppn 0x80400
621353054500: system.switch_cpus.mmu.itb: translate(vpn=0xffffffe000201310, asid=0): 0x80401310
621353054500: system.switch_cpus.mmu.dtb: lookup(vpn=0xffffffe001c13f30, asid=0): hit ppn 0x81e00
621353054500: system.switch_cpus.mmu.dtb: translate(vpn=0xffffffe001c13f30, asid=0): 0x81e13f30
621353055000: system.switch_cpus.mmu.itb: lookup(vpn=0xffffffe000201314, asid=0): hit ppn 0x80400
621353055000: system.switch_cpus.mmu.itb: translate(vpn=0xffffffe000201314, asid=0): 0x80401314
621353055000: system.switch_cpus.mmu.dtb: lookup(vpn=0xffffffe001c13f38, asid=0): hit ppn 0x81e00
621353055000: system.switch_cpus.mmu.dtb: translate(vpn=0xffffffe001c13f38, asid=0): 0x81e13f38
621353055500: system.switch_cpus.mmu.itb: lookup(vpn=0xffffffe000201314, asid=0): hit ppn 0x80400
621353055500: system.switch_cpus.mmu.itb: translate(vpn=0xffffffe000201314, asid=0): 0x80401314
621353055500: system.switch_cpus.mmu.dtb: lookup(vpn=0xffffffe001c13f40, asid=0): hit ppn 0x81e00
621353055500: system.switch_cpus.mmu.dtb: translate(vpn=0xffffffe001c13f40, asid=0): 0x81e13f40
621353056000: system.switch_cpus.mmu.itb: lookup(vpn=0xffffffe000201318, asid=0): hit ppn 0x80400
621353056000: system.switch_cpus.mmu.itb: translate(vpn=0xffffffe000201318, asid=0): 0x80401318
621353056000: system.switch_cpus.mmu.dtb: lookup(vpn=0xffffffe001c13f48, asid=0): hit ppn 0x81e00
621353056000: system.switch_cpus.mmu.dtb: translate(vpn=0xffffffe001c13f48, asid=0): 0x81e13f48
621353056500: system.switch_cpus.mmu.itb: lookup(vpn=0xffffffe000201318, asid=0): hit ppn 0x80400
621353056500: system.switch_cpus.mmu.itb: translate(vpn=0xffffffe000201318, asid=0): 0x80401318
621353056500: system.switch_cpus.mmu.dtb: lookup(vpn=0xffffffe001c13f50, asid=0): hit ppn 0x81e00
621353056500: system.switch_cpus.mmu.dtb: translate(vpn=0xffffffe001c13f50, asid=0): 0x81e13f50
621353057000: system.switch_cpus.mmu.itb: lookup(vpn=0xffffffe00020131c, asid=0): hit ppn 0x80400
621353057000: system.switch_cpus.mmu.itb: translate(vpn=0xffffffe00020131c, asid=0): 0x8040131c
621353057000: system.switch_cpus.mmu.dtb: lookup(vpn=0xffffffe001c13f58, asid=0): hit ppn 0x81e00
621353057000: system.switch_cpus.mmu.dtb: translate(vpn=0xffffffe001c13f58, asid=0): 0x81e13f58
621353057500: system.switch_cpus.mmu.itb: lookup(vpn=0xffffffe00020131c, asid=0): hit ppn 0x80400
621353057500: system.switch_cpus.mmu.itb: translate(vpn=0xffffffe00020131c, asid=0): 0x8040131c
621353057500: system.switch_cpus.mmu.dtb: lookup(vpn=0xffffffe001c13f60, asid=0): hit ppn 0x81e00
621353057500: system.switch_cpus.mmu.dtb: translate(vpn=0xffffffe001c13f60, asid=0): 0x81e13f60
621353058000: system.switch_cpus.mmu.itb: lookup(vpn=0xffffffe000201320, asid=0): hit ppn 0x80400
621353058000: system.switch_cpus.mmu.itb: translate(vpn=0xffffffe000201320, asid=0): 0x80401320
621353058000: system.switch_cpus.mmu.dtb: lookup(vpn=0xffffffe001c13f68, asid=0): hit ppn 0x81e00
621353058000: system.switch_cpus.mmu.dtb: translate(vpn=0xffffffe001c13f68, asid=0): 0x81e13f68
621353058500: system.switch_cpus.mmu.itb: lookup(vpn=0xffffffe000201320, asid=0): hit ppn 0x80400
621353058500: system.switch_cpus.mmu.itb: translate(vpn=0xffffffe000201320, asid=0): 0x80401320
621353058500: system.switch_cpus.mmu.dtb: lookup(vpn=0xffffffe001c13f70, asid=0): hit ppn 0x81e00
621353058500: system.switch_cpus.mmu.dtb: translate(vpn=0xffffffe001c13f70, asid=0): 0x81e13f70
621353059000: system.switch_cpus.mmu.itb: lookup(vpn=0xffffffe000201324, asid=0): hit ppn 0x80400
621353059000: system.switch_cpus.mmu.itb: translate(vpn=0xffffffe000201324, asid=0): 0x80401324
621353059000: system.switch_cpus.mmu.dtb: lookup(vpn=0xffffffe001c13f78, asid=0): hit ppn 0x81e00
621353059000: system.switch_cpus.mmu.dtb: translate(vpn=0xffffffe001c13f78, asid=0): 0x81e13f78
621353059500: system.switch_cpus.mmu.itb: lookup(vpn=0xffffffe000201324, asid=0): hit ppn 0x80400
621353059500: system.switch_cpus.mmu.itb: translate(vpn=0xffffffe000201324, asid=0): 0x80401324
621353059500: system.switch_cpus.mmu.dtb: lookup(vpn=0xffffffe001c13f80, asid=0): hit ppn 0x81e00
621353059500: system.switch_cpus.mmu.dtb: translate(vpn=0xffffffe001c13f80, asid=0): 0x81e13f80
621353060000: system.switch_cpus.mmu.itb: lookup(vpn=0xffffffe000201328, asid=0): hit ppn 0x80400
621353060000: system.switch_cpus.mmu.itb: translate(vpn=0xffffffe000201328, asid=0): 0x80401328
621353060000: system.switch_cpus.mmu.dtb: lookup(vpn=0xffffffe001c13f88, asid=0): hit ppn 0x81e00
621353060000: system.switch_cpus.mmu.dtb: translate(vpn=0xffffffe001c13f88, asid=0): 0x81e13f88
621353060500: system.switch_cpus.mmu.itb: lookup(vpn=0xffffffe000201328, asid=0): hit ppn 0x80400
621353060500: system.switch_cpus.mmu.itb: translate(vpn=0xffffffe000201328, asid=0): 0x80401328
621353060500: system.switch_cpus.mmu.dtb: lookup(vpn=0xffffffe001c13f90, asid=0): hit ppn 0x81e00
621353060500: system.switch_cpus.mmu.dtb: translate(vpn=0xffffffe001c13f90, asid=0): 0x81e13f90
621353061000: system.switch_cpus.mmu.itb: lookup(vpn=0xffffffe00020132c, asid=0): hit ppn 0x80400
621353061000: system.switch_cpus.mmu.itb: translate(vpn=0xffffffe00020132c, asid=0): 0x8040132c
621353061000: system.switch_cpus.mmu.dtb: lookup(vpn=0xffffffe001c13f98, asid=0): hit ppn 0x81e00
621353061000: system.switch_cpus.mmu.dtb: translate(vpn=0xffffffe001c13f98, asid=0): 0x81e13f98
621353061500: system.switch_cpus.mmu.itb: lookup(vpn=0xffffffe00020132c, asid=0): hit ppn 0x80400
621353061500: system.switch_cpus.mmu.itb: translate(vpn=0xffffffe00020132c, asid=0): 0x8040132c
621353061500: system.switch_cpus.mmu.dtb: lookup(vpn=0xffffffe001c13fa0, asid=0): hit ppn 0x81e00
621353061500: system.switch_cpus.mmu.dtb: translate(vpn=0xffffffe001c13fa0, asid=0): 0x81e13fa0
621353062000: system.switch_cpus.mmu.itb: lookup(vpn=0xffffffe000201330, asid=0): hit ppn 0x80400
621353062000: system.switch_cpus.mmu.itb: translate(vpn=0xffffffe000201330, asid=0): 0x80401330
621353062000: system.switch_cpus.mmu.dtb: lookup(vpn=0xffffffe001c13fa8, asid=0): hit ppn 0x81e00
621353062000: system.switch_cpus.mmu.dtb: translate(vpn=0xffffffe001c13fa8, asid=0): 0x81e13fa8
621353062500: system.switch_cpus.mmu.itb: lookup(vpn=0xffffffe000201330, asid=0): hit ppn 0x80400
621353062500: system.switch_cpus.mmu.itb: translate(vpn=0xffffffe000201330, asid=0): 0x80401330
621353062500: system.switch_cpus.mmu.dtb: lookup(vpn=0xffffffe001c13fb0, asid=0): hit ppn 0x81e00
621353062500: system.switch_cpus.mmu.dtb: translate(vpn=0xffffffe001c13fb0, asid=0): 0x81e13fb0
621353063000: system.switch_cpus.mmu.itb: lookup(vpn=0xffffffe000201334, asid=0): hit ppn 0x80400
621353063000: system.switch_cpus.mmu.itb: translate(vpn=0xffffffe000201334, asid=0): 0x80401334
621353063000: system.switch_cpus.mmu.dtb: lookup(vpn=0xffffffe001c13fb8, asid=0): hit ppn 0x81e00
621353063000: system.switch_cpus.mmu.dtb: translate(vpn=0xffffffe001c13fb8, asid=0): 0x81e13fb8
621353063500: system.switch_cpus.mmu.itb: lookup(vpn=0xffffffe000201334, asid=0): hit ppn 0x80400
621353063500: system.switch_cpus.mmu.itb: translate(vpn=0xffffffe000201334, asid=0): 0x80401334
621353063500: system.switch_cpus.mmu.dtb: lookup(vpn=0xffffffe001c13fc0, asid=0): hit ppn 0x81e00
621353063500: system.switch_cpus.mmu.dtb: translate(vpn=0xffffffe001c13fc0, asid=0): 0x81e13fc0
621353064000: system.switch_cpus.mmu.itb: lookup(vpn=0xffffffe000201338, asid=0): hit ppn 0x80400
621353064000: system.switch_cpus.mmu.itb: translate(vpn=0xffffffe000201338, asid=0): 0x80401338
621353064000: system.switch_cpus.mmu.dtb: lookup(vpn=0xffffffe001c13fc8, asid=0): hit ppn 0x81e00
621353064000: system.switch_cpus.mmu.dtb: translate(vpn=0xffffffe001c13fc8, asid=0): 0x81e13fc8
621353064500: system.switch_cpus.mmu.itb: lookup(vpn=0xffffffe000201338, asid=0): hit ppn 0x80400
621353064500: system.switch_cpus.mmu.itb: translate(vpn=0xffffffe000201338, asid=0): 0x80401338
621353064500: system.switch_cpus.mmu.dtb: lookup(vpn=0xffffffe001c13fd0, asid=0): hit ppn 0x81e00
621353064500: system.switch_cpus.mmu.dtb: translate(vpn=0xffffffe001c13fd0, asid=0): 0x81e13fd0
621353065000: system.switch_cpus.mmu.itb: lookup(vpn=0xffffffe00020133c, asid=0): hit ppn 0x80400
621353065000: system.switch_cpus.mmu.itb: translate(vpn=0xffffffe00020133c, asid=0): 0x8040133c
621353065000: system.switch_cpus.mmu.dtb: lookup(vpn=0xffffffe001c13fd8, asid=0): hit ppn 0x81e00
621353065000: system.switch_cpus.mmu.dtb: translate(vpn=0xffffffe001c13fd8, asid=0): 0x81e13fd8
621353065500: system.switch_cpus.mmu.itb: lookup(vpn=0xffffffe00020133c, asid=0): hit ppn 0x80400
621353065500: system.switch_cpus.mmu.itb: translate(vpn=0xffffffe00020133c, asid=0): 0x8040133c
621353065500: system.switch_cpus.mmu.dtb: lookup(vpn=0xffffffe001c13ef0, asid=0): hit ppn 0x81e00
621353065500: system.switch_cpus.mmu.dtb: translate(vpn=0xffffffe001c13ef0, asid=0): 0x81e13ef0
621353066000: system.switch_cpus.mmu.itb: lookup(vpn=0xffffffe000201340, asid=0): hit ppn 0x80400
621353066000: system.switch_cpus.mmu.itb: translate(vpn=0xffffffe000201340, asid=0): 0x80401340
621353066500: system.switch_cpus.mmu.itb: lookup(vpn=0x10544, asid=0): hit ppn 0x9b77f
621353066500: system.switch_cpus.mmu.itb: translate(vpn=0x10544, asid=0): 0x9b77f544
621353067000: system.switch_cpus.mmu.itb: lookup(vpn=0x10548, asid=0): hit ppn 0x9b77f
621353067000: system.switch_cpus.mmu.itb: translate(vpn=0x10548, asid=0): 0x9b77f548
621353067000: system.switch_cpus.mmu.dtb: lookup(vpn=0x3fcb342000, asid=0): miss ppn 0
621353067000: system.switch_cpus.mmu.dtb.walker: Performing table walk for address 0x3fcb342000
621353067000: system.switch_cpus.mmu.dtb.walker: Loading level2 PTE from 0x81e577f8
621353067000: system.switch_cpus.mmu.dtb.walker: Got level2 PTE: 0x20083001
621353067000: system.switch_cpus.mmu.dtb.walker: Loading level1 PTE from 0x8020c2c8
621353067000: system.switch_cpus.mmu.dtb.walker: Got level1 PTE: 0x20793401
621353067000: system.switch_cpus.mmu.dtb.walker: Loading level0 PTE from 0x81e4da10
621353067000: system.switch_cpus.mmu.dtb.walker: Got level0 PTE: 0x26da40d7
621353067000: system.switch_cpus.mmu.dtb: insert(vpn=0x3fcb342000, asid=0): ppn=0x9b690 pte=0x26da40d7 size=0x1000
621353067000: system.switch_cpus.mmu.dtb: translate(vpn=0x3fcb342000, asid=0): 0x9b690000
621353067500: system.switch_cpus.mmu.itb: lookup(vpn=0x10548, asid=0): hit ppn 0x9b77f
621353067500: system.switch_cpus.mmu.itb: translate(vpn=0x10548, asid=0): 0x9b77f548
621353068000: system.switch_cpus.mmu.itb: lookup(vpn=0x1054c, asid=0): hit ppn 0x9b77f
621353068000: system.switch_cpus.mmu.itb: translate(vpn=0x1054c, asid=0): 0x9b77f54c
621353068500: system.switch_cpus.mmu.itb: lookup(vpn=0x1054c, asid=0): hit ppn 0x9b77f
621353068500: system.switch_cpus.mmu.itb: translate(vpn=0x1054c, asid=0): 0x9b77f54c
621353069000: system.switch_cpus.mmu.itb: lookup(vpn=0x10550, asid=0): hit ppn 0x9b77f
621353069000: system.switch_cpus.mmu.itb: translate(vpn=0x10550, asid=0): 0x9b77f550
621353069500: system.switch_cpus.mmu.itb: lookup(vpn=0x105b0, asid=0): hit ppn 0x9b77f
621353069500: system.switch_cpus.mmu.itb: translate(vpn=0x105b0, asid=0): 0x9b77f5b0
621353070000: system.switch_cpus.mmu.itb: lookup(vpn=0x105b4, asid=0): hit ppn 0x9b77f
621353070000: system.switch_cpus.mmu.itb: translate(vpn=0x105b4, asid=0): 0x9b77f5b4
621353070500: system.switch_cpus.mmu.itb: lookup(vpn=0x105b4, asid=0): hit ppn 0x9b77f
621353070500: system.switch_cpus.mmu.itb: translate(vpn=0x105b4, asid=0): 0x9b77f5b4
621353071000: system.switch_cpus.mmu.itb: lookup(vpn=0x10550, asid=0): hit ppn 0x9b77f
621353071000: system.switch_cpus.mmu.itb: translate(vpn=0x10550, asid=0): 0x9b77f550
621353071500: system.switch_cpus.mmu.itb: lookup(vpn=0x10554, asid=0): hit ppn 0x9b77f
621353071500: system.switch_cpus.mmu.itb: translate(vpn=0x10554, asid=0): 0x9b77f554
621353072000: system.switch_cpus.mmu.itb: lookup(vpn=0x1058c, asid=0): hit ppn 0x9b77f
621353072000: system.switch_cpus.mmu.itb: translate(vpn=0x1058c, asid=0): 0x9b77f58c
621353072500: system.switch_cpus.mmu.itb: lookup(vpn=0x10590, asid=0): hit ppn 0x9b77f
621353072500: system.switch_cpus.mmu.itb: translate(vpn=0x10590, asid=0): 0x9b77f590
Exiting @ tick 621353072500 because m5_exit instruction encountered
